/*--------------------------------*- C++ -*----------------------------------*\
  =========                 |
  \\      /  F ield         | OpenFOAM: The Open Source CFD Toolbox
   \\    /   O peration     | Website:  https://openfoam.org
    \\  /    A nd           | Version:  6
     \\/     M anipulation  |
\*---------------------------------------------------------------------------*/
FoamFile
{
    version     2.0;
    format      ascii;
    class       featureEdgeMesh;
    location    "constant/triSurface";
    object      absorber.eMesh;
}
// * * * * * * * * * * * * * * * * * * * * * * * * * * * * * * * * * * * * * //


// points:

360
(
(-6.981e-05 0 -0.00399939)
(0 0 -0.004)
(6.981e-05 0 -0.00399939)
(-0.000139598 0 -0.00399756)
(0.000139598 0 -0.00399756)
(-0.000209344 0 -0.00399452)
(0.000209344 0 -0.00399452)
(-0.000279026 0 -0.00399026)
(0.000279026 0 -0.00399026)
(-0.000348623 0 -0.00398478)
(0.000348623 0 -0.00398478)
(-0.000418114 0 -0.00397809)
(0.000418114 0 -0.00397809)
(-0.000487477 0 -0.00397019)
(0.000487477 0 -0.00397019)
(-0.000556692 0 -0.00396107)
(0.000556692 0 -0.00396107)
(-0.000625738 0 -0.00395075)
(0.000625738 0 -0.00395075)
(-0.000694593 0 -0.00393923)
(0.000694593 0 -0.00393923)
(-0.000763236 0 -0.00392651)
(0.000763236 0 -0.00392651)
(-0.000831647 0 -0.00391259)
(0.000831647 0 -0.00391259)
(-0.000899804 0 -0.00389748)
(0.000899804 0 -0.00389748)
(-0.000967688 0 -0.00388118)
(0.000967688 0 -0.00388118)
(-0.00103528 0 -0.0038637)
(0.00103528 0 -0.0038637)
(-0.00110255 0 -0.00384505)
(0.00110255 0 -0.00384505)
(-0.00116949 0 -0.00382522)
(0.00116949 0 -0.00382522)
(-0.00123607 0 -0.00380423)
(0.00123607 0 -0.00380423)
(-0.00130227 0 -0.00378207)
(0.00130227 0 -0.00378207)
(-0.00136808 0 -0.00375877)
(0.00136808 0 -0.00375877)
(-0.00143347 0 -0.00373432)
(0.00143347 0 -0.00373432)
(-0.00149843 0 -0.00370873)
(0.00149843 0 -0.00370873)
(-0.00156292 0 -0.00368202)
(0.00156292 0 -0.00368202)
(-0.00162695 0 -0.00365418)
(0.00162695 0 -0.00365418)
(-0.00169047 0 -0.00362523)
(0.00169047 0 -0.00362523)
(-0.00175348 0 -0.00359518)
(0.00175348 0 -0.00359518)
(-0.00181596 0 -0.00356403)
(0.00181596 0 -0.00356403)
(-0.00187789 0 -0.00353179)
(0.00187789 0 -0.00353179)
(-0.00193924 0 -0.00349848)
(0.00193924 0 -0.00349848)
(-0.002 0 -0.0034641)
(0.002 0 -0.0034641)
(-0.00206015 0 -0.00342867)
(0.00206015 0 -0.00342867)
(-0.00211968 0 -0.00339219)
(0.00211968 0 -0.00339219)
(-0.00217856 0 -0.00335468)
(0.00217856 0 -0.00335468)
(-0.00223677 0 -0.00331615)
(0.00223677 0 -0.00331615)
(-0.00229431 0 -0.00327661)
(0.00229431 0 -0.00327661)
(-0.00235114 0 -0.00323607)
(0.00235114 0 -0.00323607)
(-0.00240726 0 -0.00319454)
(0.00240726 0 -0.00319454)
(-0.00246265 0 -0.00315204)
(0.00246265 0 -0.00315204)
(-0.00251728 0 -0.00310858)
(0.00251728 0 -0.00310858)
(-0.00257115 0 -0.00306418)
(0.00257115 0 -0.00306418)
(-0.00262424 0 -0.00301884)
(0.00262424 0 -0.00301884)
(-0.00267652 0 -0.00297258)
(0.00267652 0 -0.00297258)
(-0.00272799 0 -0.00292542)
(0.00272799 0 -0.00292542)
(-0.00277863 0 -0.00287736)
(0.00277863 0 -0.00287736)
(-0.00282843 0 -0.00282843)
(0.00282843 0 -0.00282843)
(-0.00287736 0 -0.00277863)
(0.00287736 0 -0.00277863)
(-0.00292542 0 -0.00272799)
(0.00292542 0 -0.00272799)
(-0.00297258 0 -0.00267652)
(0.00297258 0 -0.00267652)
(-0.00301884 0 -0.00262424)
(0.00301884 0 -0.00262424)
(-0.00306418 0 -0.00257115)
(0.00306418 0 -0.00257115)
(-0.00310858 0 -0.00251728)
(0.00310858 0 -0.00251728)
(-0.00315204 0 -0.00246265)
(0.00315204 0 -0.00246265)
(-0.00319454 0 -0.00240726)
(0.00319454 0 -0.00240726)
(-0.00323607 0 -0.00235114)
(0.00323607 0 -0.00235114)
(-0.00327661 0 -0.00229431)
(0.00327661 0 -0.00229431)
(-0.00331615 0 -0.00223677)
(0.00331615 0 -0.00223677)
(-0.00335468 0 -0.00217856)
(0.00335468 0 -0.00217856)
(-0.00339219 0 -0.00211968)
(0.00339219 0 -0.00211968)
(-0.00342867 0 -0.00206015)
(0.00342867 0 -0.00206015)
(-0.0034641 0 -0.002)
(0.0034641 0 -0.002)
(-0.00349848 0 -0.00193924)
(0.00349848 0 -0.00193924)
(-0.00353179 0 -0.00187789)
(0.00353179 0 -0.00187789)
(-0.00356403 0 -0.00181596)
(0.00356403 0 -0.00181596)
(-0.00359518 0 -0.00175348)
(0.00359518 0 -0.00175348)
(-0.00362523 0 -0.00169047)
(0.00362523 0 -0.00169047)
(-0.00365418 0 -0.00162695)
(0.00365418 0 -0.00162695)
(-0.00368202 0 -0.00156292)
(0.00368202 0 -0.00156292)
(-0.00370873 0 -0.00149843)
(0.00370873 0 -0.00149843)
(-0.00373432 0 -0.00143347)
(0.00373432 0 -0.00143347)
(-0.00375877 0 -0.00136808)
(0.00375877 0 -0.00136808)
(-0.00378207 0 -0.00130227)
(0.00378207 0 -0.00130227)
(-0.00380423 0 -0.00123607)
(0.00380423 0 -0.00123607)
(-0.00382522 0 -0.00116949)
(0.00382522 0 -0.00116949)
(-0.00384505 0 -0.00110255)
(0.00384505 0 -0.00110255)
(-0.0038637 0 -0.00103528)
(0.0038637 0 -0.00103528)
(-0.00388118 0 -0.000967688)
(0.00388118 0 -0.000967688)
(-0.00389748 0 -0.000899804)
(0.00389748 0 -0.000899804)
(-0.00391259 0 -0.000831647)
(0.00391259 0 -0.000831647)
(-0.00392651 0 -0.000763236)
(0.00392651 0 -0.000763236)
(-0.00393923 0 -0.000694593)
(0.00393923 0 -0.000694593)
(-0.00395075 0 -0.000625738)
(0.00395075 0 -0.000625738)
(-0.00396107 0 -0.000556692)
(0.00396107 0 -0.000556692)
(-0.00397019 0 -0.000487477)
(0.00397019 0 -0.000487477)
(-0.00397809 0 -0.000418114)
(0.00397809 0 -0.000418114)
(-0.00398478 0 -0.000348623)
(0.00398478 0 -0.000348623)
(-0.00399026 0 -0.000279026)
(0.00399026 0 -0.000279026)
(-0.00399452 0 -0.000209344)
(0.00399452 0 -0.000209344)
(-0.00399756 0 -0.000139598)
(0.00399756 0 -0.000139598)
(-0.00399939 0 -6.981e-05)
(0.00399939 0 -6.981e-05)
(-0.004 0 0)
(0.004 0 0)
(0.00399939 0 6.981e-05)
(-0.00399756 0 0.000139598)
(-0.00399939 0 6.981e-05)
(-0.00398478 0 0.000348623)
(-0.00399026 0 0.000279026)
(-0.00399452 0 0.000209344)
(-0.00396107 0 0.000556692)
(-0.00397019 0 0.000487477)
(-0.00397809 0 0.000418114)
(-0.00392651 0 0.000763236)
(-0.00393923 0 0.000694593)
(-0.00395075 0 0.000625738)
(-0.00388118 0 0.000967688)
(-0.00389748 0 0.000899804)
(-0.00391259 0 0.000831647)
(-0.00382522 0 0.00116949)
(-0.00384505 0 0.00110255)
(-0.0038637 0 0.00103528)
(-0.00375877 0 0.00136808)
(-0.00378207 0 0.00130227)
(-0.00380423 0 0.00123607)
(-0.00368202 0 0.00156292)
(-0.00370873 0 0.00149843)
(-0.00373432 0 0.00143347)
(-0.00359518 0 0.00175348)
(-0.00362523 0 0.00169047)
(-0.00365418 0 0.00162695)
(-0.00349848 0 0.00193924)
(-0.00353179 0 0.00187789)
(-0.00356403 0 0.00181596)
(-0.00339219 0 0.00211968)
(-0.00342867 0 0.00206015)
(-0.0034641 0 0.002)
(-0.00327661 0 0.00229431)
(-0.00331615 0 0.00223677)
(-0.00335468 0 0.00217856)
(-0.00315204 0 0.00246265)
(-0.00319454 0 0.00240726)
(-0.00323607 0 0.00235114)
(-0.00301884 0 0.00262424)
(-0.00306418 0 0.00257115)
(-0.00310858 0 0.00251728)
(-0.00287736 0 0.00277863)
(-0.00292542 0 0.00272799)
(-0.00297258 0 0.00267652)
(-0.00272799 0 0.00292542)
(-0.00277863 0 0.00287736)
(-0.00282843 0 0.00282843)
(-0.00257115 0 0.00306418)
(-0.00262424 0 0.00301884)
(-0.00267652 0 0.00297258)
(-0.00240726 0 0.00319454)
(-0.00246265 0 0.00315204)
(-0.00251728 0 0.00310858)
(-0.00223677 0 0.00331615)
(-0.00229431 0 0.00327661)
(-0.00235114 0 0.00323607)
(-0.00206015 0 0.00342867)
(-0.00211968 0 0.00339219)
(-0.00217856 0 0.00335468)
(-0.00187789 0 0.00353179)
(-0.00193924 0 0.00349848)
(-0.002 0 0.0034641)
(-0.00169047 0 0.00362523)
(-0.00175348 0 0.00359518)
(-0.00181596 0 0.00356403)
(-0.00149843 0 0.00370873)
(-0.00156292 0 0.00368202)
(-0.00162695 0 0.00365418)
(-0.00130227 0 0.00378207)
(-0.00136808 0 0.00375877)
(-0.00143347 0 0.00373432)
(-0.00110255 0 0.00384505)
(-0.00116949 0 0.00382522)
(-0.00123607 0 0.00380423)
(-0.000899804 0 0.00389748)
(-0.000967688 0 0.00388118)
(-0.00103528 0 0.0038637)
(-0.000694593 0 0.00393923)
(-0.000763236 0 0.00392651)
(-0.000831647 0 0.00391259)
(-0.000487477 0 0.00397019)
(-0.000556692 0 0.00396107)
(-0.000625738 0 0.00395075)
(-0.000279026 0 0.00399026)
(-0.000348623 0 0.00398478)
(-0.000418114 0 0.00397809)
(-6.981e-05 0 0.00399939)
(-0.000139598 0 0.00399756)
(-0.000209344 0 0.00399452)
(0.000139598 0 0.00399756)
(6.981e-05 0 0.00399939)
(0 0 0.004)
(0.000348623 0 0.00398478)
(0.000279026 0 0.00399026)
(0.000209344 0 0.00399452)
(0.000556692 0 0.00396107)
(0.000487477 0 0.00397019)
(0.000418114 0 0.00397809)
(0.000763236 0 0.00392651)
(0.000694593 0 0.00393923)
(0.000625738 0 0.00395075)
(0.000967688 0 0.00388118)
(0.000899804 0 0.00389748)
(0.000831647 0 0.00391259)
(0.00116949 0 0.00382522)
(0.00110255 0 0.00384505)
(0.00103528 0 0.0038637)
(0.00136808 0 0.00375877)
(0.00130227 0 0.00378207)
(0.00123607 0 0.00380423)
(0.00156292 0 0.00368202)
(0.00149843 0 0.00370873)
(0.00143347 0 0.00373432)
(0.00175348 0 0.00359518)
(0.00169047 0 0.00362523)
(0.00162695 0 0.00365418)
(0.00193924 0 0.00349848)
(0.00187789 0 0.00353179)
(0.00181596 0 0.00356403)
(0.00211968 0 0.00339219)
(0.00206015 0 0.00342867)
(0.002 0 0.0034641)
(0.00229431 0 0.00327661)
(0.00223677 0 0.00331615)
(0.00217856 0 0.00335468)
(0.00246265 0 0.00315204)
(0.00240726 0 0.00319454)
(0.00235114 0 0.00323607)
(0.00262424 0 0.00301884)
(0.00257115 0 0.00306418)
(0.00251728 0 0.00310858)
(0.00277863 0 0.00287736)
(0.00272799 0 0.00292542)
(0.00267652 0 0.00297258)
(0.00292542 0 0.00272799)
(0.00287736 0 0.00277863)
(0.00282843 0 0.00282843)
(0.00306418 0 0.00257115)
(0.00301884 0 0.00262424)
(0.00297258 0 0.00267652)
(0.00319454 0 0.00240726)
(0.00315204 0 0.00246265)
(0.00310858 0 0.00251728)
(0.00331615 0 0.00223677)
(0.00327661 0 0.00229431)
(0.00323607 0 0.00235114)
(0.00342867 0 0.00206015)
(0.00339219 0 0.00211968)
(0.00335468 0 0.00217856)
(0.00353179 0 0.00187789)
(0.00349848 0 0.00193924)
(0.0034641 0 0.002)
(0.00362523 0 0.00169047)
(0.00359518 0 0.00175348)
(0.00356403 0 0.00181596)
(0.00370873 0 0.00149843)
(0.00368202 0 0.00156292)
(0.00365418 0 0.00162695)
(0.00378207 0 0.00130227)
(0.00375877 0 0.00136808)
(0.00373432 0 0.00143347)
(0.00384505 0 0.00110255)
(0.00382522 0 0.00116949)
(0.00380423 0 0.00123607)
(0.00389748 0 0.000899804)
(0.00388118 0 0.000967688)
(0.0038637 0 0.00103528)
(0.00393923 0 0.000694593)
(0.00392651 0 0.000763236)
(0.00391259 0 0.000831647)
(0.00397019 0 0.000487477)
(0.00396107 0 0.000556692)
(0.00395075 0 0.000625738)
(0.00399026 0 0.000279026)
(0.00398478 0 0.000348623)
(0.00397809 0 0.000418114)
(0.00399756 0 0.000139598)
(0.00399452 0 0.000209344)
)


// edges:

360
(
(0 1)
(1 2)
(3 0)
(2 4)
(5 3)
(4 6)
(7 5)
(6 8)
(9 7)
(8 10)
(11 9)
(10 12)
(13 11)
(12 14)
(15 13)
(14 16)
(17 15)
(16 18)
(19 17)
(18 20)
(21 19)
(20 22)
(23 21)
(22 24)
(25 23)
(24 26)
(27 25)
(26 28)
(29 27)
(28 30)
(31 29)
(30 32)
(33 31)
(32 34)
(35 33)
(34 36)
(37 35)
(36 38)
(39 37)
(38 40)
(41 39)
(40 42)
(43 41)
(42 44)
(45 43)
(44 46)
(47 45)
(46 48)
(49 47)
(48 50)
(51 49)
(50 52)
(53 51)
(52 54)
(55 53)
(54 56)
(57 55)
(56 58)
(59 57)
(58 60)
(61 59)
(60 62)
(63 61)
(62 64)
(65 63)
(64 66)
(67 65)
(66 68)
(69 67)
(68 70)
(71 69)
(70 72)
(73 71)
(72 74)
(75 73)
(74 76)
(77 75)
(76 78)
(79 77)
(78 80)
(81 79)
(80 82)
(83 81)
(82 84)
(85 83)
(84 86)
(87 85)
(86 88)
(89 87)
(88 90)
(91 89)
(90 92)
(93 91)
(92 94)
(95 93)
(94 96)
(97 95)
(96 98)
(99 97)
(98 100)
(101 99)
(100 102)
(103 101)
(102 104)
(105 103)
(104 106)
(107 105)
(106 108)
(109 107)
(108 110)
(111 109)
(110 112)
(113 111)
(112 114)
(115 113)
(114 116)
(117 115)
(116 118)
(119 117)
(118 120)
(121 119)
(120 122)
(123 121)
(122 124)
(125 123)
(124 126)
(127 125)
(126 128)
(129 127)
(128 130)
(131 129)
(130 132)
(133 131)
(132 134)
(135 133)
(134 136)
(137 135)
(136 138)
(139 137)
(138 140)
(141 139)
(140 142)
(143 141)
(142 144)
(145 143)
(144 146)
(147 145)
(146 148)
(149 147)
(148 150)
(151 149)
(150 152)
(153 151)
(152 154)
(155 153)
(154 156)
(157 155)
(156 158)
(159 157)
(158 160)
(161 159)
(160 162)
(163 161)
(162 164)
(165 163)
(164 166)
(167 165)
(166 168)
(169 167)
(168 170)
(171 169)
(170 172)
(173 171)
(172 174)
(175 173)
(174 176)
(177 175)
(176 178)
(179 177)
(178 180)
(180 181)
(182 183)
(183 179)
(184 185)
(185 186)
(186 182)
(187 188)
(188 189)
(189 184)
(190 191)
(191 192)
(192 187)
(193 194)
(194 195)
(195 190)
(196 197)
(197 198)
(198 193)
(199 200)
(200 201)
(201 196)
(202 203)
(203 204)
(204 199)
(205 206)
(206 207)
(207 202)
(208 209)
(209 210)
(210 205)
(211 212)
(212 213)
(213 208)
(214 215)
(215 216)
(216 211)
(217 218)
(218 219)
(219 214)
(220 221)
(221 222)
(222 217)
(223 224)
(224 225)
(225 220)
(226 227)
(227 228)
(228 223)
(229 230)
(230 231)
(231 226)
(232 233)
(233 234)
(234 229)
(235 236)
(236 237)
(237 232)
(238 239)
(239 240)
(240 235)
(241 242)
(242 243)
(243 238)
(244 245)
(245 246)
(246 241)
(247 248)
(248 249)
(249 244)
(250 251)
(251 252)
(252 247)
(253 254)
(254 255)
(255 250)
(256 257)
(257 258)
(258 253)
(259 260)
(260 261)
(261 256)
(262 263)
(263 264)
(264 259)
(265 266)
(266 267)
(267 262)
(268 269)
(269 270)
(270 265)
(271 272)
(272 273)
(273 268)
(274 275)
(275 276)
(276 271)
(277 278)
(278 279)
(279 274)
(280 281)
(281 282)
(282 277)
(283 284)
(284 285)
(285 280)
(286 287)
(287 288)
(288 283)
(289 290)
(290 291)
(291 286)
(292 293)
(293 294)
(294 289)
(295 296)
(296 297)
(297 292)
(298 299)
(299 300)
(300 295)
(301 302)
(302 303)
(303 298)
(304 305)
(305 306)
(306 301)
(307 308)
(308 309)
(309 304)
(310 311)
(311 312)
(312 307)
(313 314)
(314 315)
(315 310)
(316 317)
(317 318)
(318 313)
(319 320)
(320 321)
(321 316)
(322 323)
(323 324)
(324 319)
(325 326)
(326 327)
(327 322)
(328 329)
(329 330)
(330 325)
(331 332)
(332 333)
(333 328)
(334 335)
(335 336)
(336 331)
(337 338)
(338 339)
(339 334)
(340 341)
(341 342)
(342 337)
(343 344)
(344 345)
(345 340)
(346 347)
(347 348)
(348 343)
(349 350)
(350 351)
(351 346)
(352 353)
(353 354)
(354 349)
(355 356)
(356 357)
(357 352)
(181 358)
(358 359)
(359 355)
)

// * * * * * * * * * * * * * * * * * * * * * * * * * * * * * * * * * * * * * //


// ************************************************************************* //
