/*--------------------------------*- C++ -*----------------------------------*\
  =========                 |
  \\      /  F ield         | OpenFOAM: The Open Source CFD Toolbox
   \\    /   O peration     | Website:  https://openfoam.org
    \\  /    A nd           | Version:  6
     \\/     M anipulation  |
\*---------------------------------------------------------------------------*/
FoamFile
{
    version     2.0;
    format      ascii;
    class       featureEdgeMesh;
    location    "constant/triSurface";
    object      inlet.eMesh;
}
// * * * * * * * * * * * * * * * * * * * * * * * * * * * * * * * * * * * * * //


// points:

360
(
(8.726e-06 0.00266126 -0.000499924)
(0 0.00266126 -0.0005)
(-8.726e-06 0.00266126 -0.000499924)
(-1.745e-05 0.00266126 -0.000499695)
(1.745e-05 0.00266126 -0.000499695)
(-2.6168e-05 0.00266126 -0.000499315)
(2.6168e-05 0.00266126 -0.000499315)
(-3.4878e-05 0.00266126 -0.000498782)
(3.4878e-05 0.00266126 -0.000498782)
(-4.3578e-05 0.00266126 -0.000498097)
(4.3578e-05 0.00266126 -0.000498097)
(-5.2264e-05 0.00266126 -0.000497261)
(5.2264e-05 0.00266126 -0.000497261)
(-6.0935e-05 0.00266126 -0.000496273)
(6.0935e-05 0.00266126 -0.000496273)
(-6.9587e-05 0.00266126 -0.000495134)
(6.9587e-05 0.00266126 -0.000495134)
(-7.8217e-05 0.00266126 -0.000493844)
(7.8217e-05 0.00266126 -0.000493844)
(-8.6824e-05 0.00266126 -0.000492404)
(8.6824e-05 0.00266126 -0.000492404)
(-9.5404e-05 0.00266126 -0.000490814)
(9.5404e-05 0.00266126 -0.000490814)
(-0.000103956 0.00266126 -0.000489074)
(0.000103956 0.00266126 -0.000489074)
(-0.000112475 0.00266126 -0.000487185)
(0.000112475 0.00266126 -0.000487185)
(-0.000120961 0.00266126 -0.000485148)
(0.000120961 0.00266126 -0.000485148)
(-0.00012941 0.00266126 -0.000482963)
(0.00012941 0.00266126 -0.000482963)
(-0.000137819 0.00266126 -0.000480631)
(0.000137819 0.00266126 -0.000480631)
(-0.000146186 0.00266126 -0.000478152)
(0.000146186 0.00266126 -0.000478152)
(-0.000154509 0.00266126 -0.000475528)
(0.000154509 0.00266126 -0.000475528)
(-0.000162784 0.00266126 -0.000472759)
(0.000162784 0.00266126 -0.000472759)
(-0.00017101 0.00266126 -0.000469846)
(0.00017101 0.00266126 -0.000469846)
(-0.000179184 0.00266126 -0.00046679)
(0.000179184 0.00266126 -0.00046679)
(-0.000187303 0.00266126 -0.000463592)
(0.000187303 0.00266126 -0.000463592)
(-0.000195366 0.00266126 -0.000460252)
(0.000195366 0.00266126 -0.000460252)
(-0.000203368 0.00266126 -0.000456773)
(0.000203368 0.00266126 -0.000456773)
(-0.000211309 0.00266126 -0.000453154)
(0.000211309 0.00266126 -0.000453154)
(-0.000219186 0.00266126 -0.000449397)
(0.000219186 0.00266126 -0.000449397)
(-0.000226995 0.00266126 -0.000445503)
(0.000226995 0.00266126 -0.000445503)
(-0.000234736 0.00266126 -0.000441474)
(0.000234736 0.00266126 -0.000441474)
(-0.000242405 0.00266126 -0.00043731)
(0.000242405 0.00266126 -0.00043731)
(-0.00025 0.00266126 -0.000433013)
(0.00025 0.00266126 -0.000433013)
(-0.000257519 0.00266126 -0.000428584)
(0.000257519 0.00266126 -0.000428584)
(-0.00026496 0.00266126 -0.000424024)
(0.00026496 0.00266126 -0.000424024)
(-0.000272319 0.00266126 -0.000419335)
(0.000272319 0.00266126 -0.000419335)
(-0.000279597 0.00266126 -0.000414519)
(0.000279597 0.00266126 -0.000414519)
(-0.000286788 0.00266126 -0.000409576)
(0.000286788 0.00266126 -0.000409576)
(-0.000293893 0.00266126 -0.000404509)
(0.000293893 0.00266126 -0.000404509)
(-0.000300907 0.00266126 -0.000399318)
(0.000300907 0.00266126 -0.000399318)
(-0.000307831 0.00266126 -0.000394005)
(0.000307831 0.00266126 -0.000394005)
(-0.00031466 0.00266126 -0.000388573)
(0.00031466 0.00266126 -0.000388573)
(-0.000321394 0.00266126 -0.000383022)
(0.000321394 0.00266126 -0.000383022)
(-0.00032803 0.00266126 -0.000377355)
(0.00032803 0.00266126 -0.000377355)
(-0.000334565 0.00266126 -0.000371572)
(0.000334565 0.00266126 -0.000371572)
(-0.000340999 0.00266126 -0.000365677)
(0.000340999 0.00266126 -0.000365677)
(-0.000347329 0.00266126 -0.00035967)
(0.000347329 0.00266126 -0.00035967)
(-0.000353553 0.00266126 -0.000353553)
(0.000353553 0.00266126 -0.000353553)
(-0.00035967 0.00266126 -0.000347329)
(0.00035967 0.00266126 -0.000347329)
(-0.000365677 0.00266126 -0.000340999)
(0.000365677 0.00266126 -0.000340999)
(-0.000371572 0.00266126 -0.000334565)
(0.000371572 0.00266126 -0.000334565)
(-0.000377355 0.00266126 -0.00032803)
(0.000377355 0.00266126 -0.00032803)
(-0.000383022 0.00266126 -0.000321394)
(0.000383022 0.00266126 -0.000321394)
(-0.000388573 0.00266126 -0.00031466)
(0.000388573 0.00266126 -0.00031466)
(-0.000394005 0.00266126 -0.000307831)
(0.000394005 0.00266126 -0.000307831)
(-0.000399318 0.00266126 -0.000300907)
(0.000399318 0.00266126 -0.000300907)
(-0.000404509 0.00266126 -0.000293893)
(0.000404509 0.00266126 -0.000293893)
(-0.000409576 0.00266126 -0.000286788)
(0.000409576 0.00266126 -0.000286788)
(-0.000414519 0.00266126 -0.000279597)
(0.000414519 0.00266126 -0.000279597)
(-0.000419335 0.00266126 -0.000272319)
(0.000419335 0.00266126 -0.000272319)
(-0.000424024 0.00266126 -0.00026496)
(0.000424024 0.00266126 -0.00026496)
(-0.000428584 0.00266126 -0.000257519)
(0.000428584 0.00266126 -0.000257519)
(-0.000433013 0.00266126 -0.00025)
(0.000433013 0.00266126 -0.00025)
(-0.00043731 0.00266126 -0.000242405)
(0.00043731 0.00266126 -0.000242405)
(-0.000441474 0.00266126 -0.000234736)
(0.000441474 0.00266126 -0.000234736)
(-0.000445503 0.00266126 -0.000226995)
(0.000445503 0.00266126 -0.000226995)
(-0.000449397 0.00266126 -0.000219186)
(0.000449397 0.00266126 -0.000219186)
(-0.000453154 0.00266126 -0.000211309)
(0.000453154 0.00266126 -0.000211309)
(-0.000456773 0.00266126 -0.000203368)
(0.000456773 0.00266126 -0.000203368)
(-0.000460252 0.00266126 -0.000195366)
(0.000460252 0.00266126 -0.000195366)
(-0.000463592 0.00266126 -0.000187303)
(0.000463592 0.00266126 -0.000187303)
(-0.00046679 0.00266126 -0.000179184)
(0.00046679 0.00266126 -0.000179184)
(-0.000469846 0.00266126 -0.00017101)
(0.000469846 0.00266126 -0.00017101)
(-0.000472759 0.00266126 -0.000162784)
(0.000472759 0.00266126 -0.000162784)
(-0.000475528 0.00266126 -0.000154509)
(0.000475528 0.00266126 -0.000154509)
(-0.000478152 0.00266126 -0.000146186)
(0.000478152 0.00266126 -0.000146186)
(-0.000480631 0.00266126 -0.000137819)
(0.000480631 0.00266126 -0.000137819)
(-0.000482963 0.00266126 -0.00012941)
(0.000482963 0.00266126 -0.00012941)
(-0.000485148 0.00266126 -0.000120961)
(0.000485148 0.00266126 -0.000120961)
(-0.000487185 0.00266126 -0.000112475)
(0.000487185 0.00266126 -0.000112475)
(-0.000489074 0.00266126 -0.000103956)
(0.000489074 0.00266126 -0.000103956)
(-0.000490814 0.00266126 -9.5404e-05)
(0.000490814 0.00266126 -9.5404e-05)
(-0.000492404 0.00266126 -8.6824e-05)
(0.000492404 0.00266126 -8.6824e-05)
(-0.000493844 0.00266126 -7.8217e-05)
(0.000493844 0.00266126 -7.8217e-05)
(-0.000495134 0.00266126 -6.9587e-05)
(0.000495134 0.00266126 -6.9587e-05)
(-0.000496273 0.00266126 -6.0935e-05)
(0.000496273 0.00266126 -6.0935e-05)
(-0.000497261 0.00266126 -5.2264e-05)
(0.000497261 0.00266126 -5.2264e-05)
(-0.000498097 0.00266126 -4.3578e-05)
(0.000498097 0.00266126 -4.3578e-05)
(-0.000498782 0.00266126 -3.4878e-05)
(0.000498782 0.00266126 -3.4878e-05)
(-0.000499315 0.00266126 -2.6168e-05)
(0.000499315 0.00266126 -2.6168e-05)
(-0.000499695 0.00266126 -1.745e-05)
(0.000499695 0.00266126 -1.745e-05)
(-0.000499924 0.00266126 -8.726e-06)
(0.000499924 0.00266126 -8.726e-06)
(-0.0005 0.00266126 0)
(0.0005 0.00266126 0)
(0.000499924 0.00266126 8.726e-06)
(0.000499695 0.00266126 1.745e-05)
(0.000498097 0.00266126 4.3578e-05)
(0.000498782 0.00266126 3.4878e-05)
(0.000499315 0.00266126 2.6168e-05)
(0.000495134 0.00266126 6.9587e-05)
(0.000496273 0.00266126 6.0935e-05)
(0.000497261 0.00266126 5.2264e-05)
(0.000490814 0.00266126 9.5404e-05)
(0.000492404 0.00266126 8.6824e-05)
(0.000493844 0.00266126 7.8217e-05)
(0.000485148 0.00266126 0.000120961)
(0.000487185 0.00266126 0.000112475)
(0.000489074 0.00266126 0.000103956)
(0.000478152 0.00266126 0.000146186)
(0.000480631 0.00266126 0.000137819)
(0.000482963 0.00266126 0.00012941)
(0.000469846 0.00266126 0.00017101)
(0.000472759 0.00266126 0.000162784)
(0.000475528 0.00266126 0.000154509)
(0.000460252 0.00266126 0.000195366)
(0.000463592 0.00266126 0.000187303)
(0.00046679 0.00266126 0.000179184)
(0.000449397 0.00266126 0.000219186)
(0.000453154 0.00266126 0.000211309)
(0.000456773 0.00266126 0.000203368)
(0.00043731 0.00266126 0.000242405)
(0.000441474 0.00266126 0.000234736)
(0.000445503 0.00266126 0.000226995)
(0.000424024 0.00266126 0.00026496)
(0.000428584 0.00266126 0.000257519)
(0.000433013 0.00266126 0.00025)
(0.000409576 0.00266126 0.000286788)
(0.000414519 0.00266126 0.000279597)
(0.000419335 0.00266126 0.000272319)
(0.000394005 0.00266126 0.000307831)
(0.000399318 0.00266126 0.000300907)
(0.000404509 0.00266126 0.000293893)
(0.000377355 0.00266126 0.00032803)
(0.000383022 0.00266126 0.000321394)
(0.000388573 0.00266126 0.00031466)
(0.00035967 0.00266126 0.000347329)
(0.000365677 0.00266126 0.000340999)
(0.000371572 0.00266126 0.000334565)
(0.000340999 0.00266126 0.000365677)
(0.000347329 0.00266126 0.00035967)
(0.000353553 0.00266126 0.000353553)
(0.000321394 0.00266126 0.000383022)
(0.00032803 0.00266126 0.000377355)
(0.000334565 0.00266126 0.000371572)
(0.000300907 0.00266126 0.000399318)
(0.000307831 0.00266126 0.000394005)
(0.00031466 0.00266126 0.000388573)
(0.000279597 0.00266126 0.000414519)
(0.000286788 0.00266126 0.000409576)
(0.000293893 0.00266126 0.000404509)
(0.000257519 0.00266126 0.000428584)
(0.00026496 0.00266126 0.000424024)
(0.000272319 0.00266126 0.000419335)
(0.000234736 0.00266126 0.000441474)
(0.000242405 0.00266126 0.00043731)
(0.00025 0.00266126 0.000433013)
(0.000211309 0.00266126 0.000453154)
(0.000219186 0.00266126 0.000449397)
(0.000226995 0.00266126 0.000445503)
(0.000187303 0.00266126 0.000463592)
(0.000195366 0.00266126 0.000460252)
(0.000203368 0.00266126 0.000456773)
(0.000162784 0.00266126 0.000472759)
(0.00017101 0.00266126 0.000469846)
(0.000179184 0.00266126 0.00046679)
(0.000137819 0.00266126 0.000480631)
(0.000146186 0.00266126 0.000478152)
(0.000154509 0.00266126 0.000475528)
(0.000112475 0.00266126 0.000487185)
(0.000120961 0.00266126 0.000485148)
(0.00012941 0.00266126 0.000482963)
(8.6824e-05 0.00266126 0.000492404)
(9.5404e-05 0.00266126 0.000490814)
(0.000103956 0.00266126 0.000489074)
(6.0935e-05 0.00266126 0.000496273)
(6.9587e-05 0.00266126 0.000495134)
(7.8217e-05 0.00266126 0.000493844)
(3.4878e-05 0.00266126 0.000498782)
(4.3578e-05 0.00266126 0.000498097)
(5.2264e-05 0.00266126 0.000497261)
(8.726e-06 0.00266126 0.000499924)
(1.745e-05 0.00266126 0.000499695)
(2.6168e-05 0.00266126 0.000499315)
(-1.745e-05 0.00266126 0.000499695)
(-8.726e-06 0.00266126 0.000499924)
(0 0.00266126 0.0005)
(-4.3578e-05 0.00266126 0.000498097)
(-3.4878e-05 0.00266126 0.000498782)
(-2.6168e-05 0.00266126 0.000499315)
(-6.9587e-05 0.00266126 0.000495134)
(-6.0935e-05 0.00266126 0.000496273)
(-5.2264e-05 0.00266126 0.000497261)
(-9.5404e-05 0.00266126 0.000490814)
(-8.6824e-05 0.00266126 0.000492404)
(-7.8217e-05 0.00266126 0.000493844)
(-0.000120961 0.00266126 0.000485148)
(-0.000112475 0.00266126 0.000487185)
(-0.000103956 0.00266126 0.000489074)
(-0.000146186 0.00266126 0.000478152)
(-0.000137819 0.00266126 0.000480631)
(-0.00012941 0.00266126 0.000482963)
(-0.00017101 0.00266126 0.000469846)
(-0.000162784 0.00266126 0.000472759)
(-0.000154509 0.00266126 0.000475528)
(-0.000195366 0.00266126 0.000460252)
(-0.000187303 0.00266126 0.000463592)
(-0.000179184 0.00266126 0.00046679)
(-0.000219186 0.00266126 0.000449397)
(-0.000211309 0.00266126 0.000453154)
(-0.000203368 0.00266126 0.000456773)
(-0.000242405 0.00266126 0.00043731)
(-0.000234736 0.00266126 0.000441474)
(-0.000226995 0.00266126 0.000445503)
(-0.00026496 0.00266126 0.000424024)
(-0.000257519 0.00266126 0.000428584)
(-0.00025 0.00266126 0.000433013)
(-0.000286788 0.00266126 0.000409576)
(-0.000279597 0.00266126 0.000414519)
(-0.000272319 0.00266126 0.000419335)
(-0.000307831 0.00266126 0.000394005)
(-0.000300907 0.00266126 0.000399318)
(-0.000293893 0.00266126 0.000404509)
(-0.00032803 0.00266126 0.000377355)
(-0.000321394 0.00266126 0.000383022)
(-0.00031466 0.00266126 0.000388573)
(-0.000347329 0.00266126 0.00035967)
(-0.000340999 0.00266126 0.000365677)
(-0.000334565 0.00266126 0.000371572)
(-0.000365677 0.00266126 0.000340999)
(-0.00035967 0.00266126 0.000347329)
(-0.000353553 0.00266126 0.000353553)
(-0.000383022 0.00266126 0.000321394)
(-0.000377355 0.00266126 0.00032803)
(-0.000371572 0.00266126 0.000334565)
(-0.000399318 0.00266126 0.000300907)
(-0.000394005 0.00266126 0.000307831)
(-0.000388573 0.00266126 0.00031466)
(-0.000414519 0.00266126 0.000279597)
(-0.000409576 0.00266126 0.000286788)
(-0.000404509 0.00266126 0.000293893)
(-0.000428584 0.00266126 0.000257519)
(-0.000424024 0.00266126 0.00026496)
(-0.000419335 0.00266126 0.000272319)
(-0.000441474 0.00266126 0.000234736)
(-0.00043731 0.00266126 0.000242405)
(-0.000433013 0.00266126 0.00025)
(-0.000453154 0.00266126 0.000211309)
(-0.000449397 0.00266126 0.000219186)
(-0.000445503 0.00266126 0.000226995)
(-0.000463592 0.00266126 0.000187303)
(-0.000460252 0.00266126 0.000195366)
(-0.000456773 0.00266126 0.000203368)
(-0.000472759 0.00266126 0.000162784)
(-0.000469846 0.00266126 0.00017101)
(-0.00046679 0.00266126 0.000179184)
(-0.000480631 0.00266126 0.000137819)
(-0.000478152 0.00266126 0.000146186)
(-0.000475528 0.00266126 0.000154509)
(-0.000487185 0.00266126 0.000112475)
(-0.000485148 0.00266126 0.000120961)
(-0.000482963 0.00266126 0.00012941)
(-0.000492404 0.00266126 8.6824e-05)
(-0.000490814 0.00266126 9.5404e-05)
(-0.000489074 0.00266126 0.000103956)
(-0.000496273 0.00266126 6.0935e-05)
(-0.000495134 0.00266126 6.9587e-05)
(-0.000493844 0.00266126 7.8217e-05)
(-0.000498782 0.00266126 3.4878e-05)
(-0.000498097 0.00266126 4.3578e-05)
(-0.000497261 0.00266126 5.2264e-05)
(-0.000499924 0.00266126 8.726e-06)
(-0.000499695 0.00266126 1.745e-05)
(-0.000499315 0.00266126 2.6168e-05)
)


// edges:

360
(
(0 1)
(1 2)
(2 3)
(4 0)
(3 5)
(6 4)
(5 7)
(8 6)
(7 9)
(10 8)
(9 11)
(12 10)
(11 13)
(14 12)
(13 15)
(16 14)
(15 17)
(18 16)
(17 19)
(20 18)
(19 21)
(22 20)
(21 23)
(24 22)
(23 25)
(26 24)
(25 27)
(28 26)
(27 29)
(30 28)
(29 31)
(32 30)
(31 33)
(34 32)
(33 35)
(36 34)
(35 37)
(38 36)
(37 39)
(40 38)
(39 41)
(42 40)
(41 43)
(44 42)
(43 45)
(46 44)
(45 47)
(48 46)
(47 49)
(50 48)
(49 51)
(52 50)
(51 53)
(54 52)
(53 55)
(56 54)
(55 57)
(58 56)
(57 59)
(60 58)
(59 61)
(62 60)
(61 63)
(64 62)
(63 65)
(66 64)
(65 67)
(68 66)
(67 69)
(70 68)
(69 71)
(72 70)
(71 73)
(74 72)
(73 75)
(76 74)
(75 77)
(78 76)
(77 79)
(80 78)
(79 81)
(82 80)
(81 83)
(84 82)
(83 85)
(86 84)
(85 87)
(88 86)
(87 89)
(90 88)
(89 91)
(92 90)
(91 93)
(94 92)
(93 95)
(96 94)
(95 97)
(98 96)
(97 99)
(100 98)
(99 101)
(102 100)
(101 103)
(104 102)
(103 105)
(106 104)
(105 107)
(108 106)
(107 109)
(110 108)
(109 111)
(112 110)
(111 113)
(114 112)
(113 115)
(116 114)
(115 117)
(118 116)
(117 119)
(120 118)
(119 121)
(122 120)
(121 123)
(124 122)
(123 125)
(126 124)
(125 127)
(128 126)
(127 129)
(130 128)
(129 131)
(132 130)
(131 133)
(134 132)
(133 135)
(136 134)
(135 137)
(138 136)
(137 139)
(140 138)
(139 141)
(142 140)
(141 143)
(144 142)
(143 145)
(146 144)
(145 147)
(148 146)
(147 149)
(150 148)
(149 151)
(152 150)
(151 153)
(154 152)
(153 155)
(156 154)
(155 157)
(158 156)
(157 159)
(160 158)
(159 161)
(162 160)
(161 163)
(164 162)
(163 165)
(166 164)
(165 167)
(168 166)
(167 169)
(170 168)
(169 171)
(172 170)
(171 173)
(174 172)
(173 175)
(176 174)
(175 177)
(178 176)
(177 179)
(180 178)
(181 180)
(182 181)
(183 184)
(184 185)
(185 182)
(186 187)
(187 188)
(188 183)
(189 190)
(190 191)
(191 186)
(192 193)
(193 194)
(194 189)
(195 196)
(196 197)
(197 192)
(198 199)
(199 200)
(200 195)
(201 202)
(202 203)
(203 198)
(204 205)
(205 206)
(206 201)
(207 208)
(208 209)
(209 204)
(210 211)
(211 212)
(212 207)
(213 214)
(214 215)
(215 210)
(216 217)
(217 218)
(218 213)
(219 220)
(220 221)
(221 216)
(222 223)
(223 224)
(224 219)
(225 226)
(226 227)
(227 222)
(228 229)
(229 230)
(230 225)
(231 232)
(232 233)
(233 228)
(234 235)
(235 236)
(236 231)
(237 238)
(238 239)
(239 234)
(240 241)
(241 242)
(242 237)
(243 244)
(244 245)
(245 240)
(246 247)
(247 248)
(248 243)
(249 250)
(250 251)
(251 246)
(252 253)
(253 254)
(254 249)
(255 256)
(256 257)
(257 252)
(258 259)
(259 260)
(260 255)
(261 262)
(262 263)
(263 258)
(264 265)
(265 266)
(266 261)
(267 268)
(268 269)
(269 264)
(270 271)
(271 272)
(272 267)
(273 274)
(274 275)
(275 270)
(276 277)
(277 278)
(278 273)
(279 280)
(280 281)
(281 276)
(282 283)
(283 284)
(284 279)
(285 286)
(286 287)
(287 282)
(288 289)
(289 290)
(290 285)
(291 292)
(292 293)
(293 288)
(294 295)
(295 296)
(296 291)
(297 298)
(298 299)
(299 294)
(300 301)
(301 302)
(302 297)
(303 304)
(304 305)
(305 300)
(306 307)
(307 308)
(308 303)
(309 310)
(310 311)
(311 306)
(312 313)
(313 314)
(314 309)
(315 316)
(316 317)
(317 312)
(318 319)
(319 320)
(320 315)
(321 322)
(322 323)
(323 318)
(324 325)
(325 326)
(326 321)
(327 328)
(328 329)
(329 324)
(330 331)
(331 332)
(332 327)
(333 334)
(334 335)
(335 330)
(336 337)
(337 338)
(338 333)
(339 340)
(340 341)
(341 336)
(342 343)
(343 344)
(344 339)
(345 346)
(346 347)
(347 342)
(348 349)
(349 350)
(350 345)
(351 352)
(352 353)
(353 348)
(354 355)
(355 356)
(356 351)
(357 358)
(358 359)
(359 354)
(179 357)
)

// * * * * * * * * * * * * * * * * * * * * * * * * * * * * * * * * * * * * * //


// ************************************************************************* //
