/*--------------------------------*- C++ -*----------------------------------*\
  =========                 |
  \\      /  F ield         | OpenFOAM: The Open Source CFD Toolbox
   \\    /   O peration     | Website:  https://openfoam.org
    \\  /    A nd           | Version:  6
     \\/     M anipulation  |
\*---------------------------------------------------------------------------*/
FoamFile
{
    version     2.0;
    format      ascii;
    class       featureEdgeMesh;
    location    "constant/triSurface";
    object      outlet.eMesh;
}
// * * * * * * * * * * * * * * * * * * * * * * * * * * * * * * * * * * * * * //


// points:

1080
(
(-7.8536e-05 -0.00133874 -0.00449932)
(0 -0.00133874 -0.0045)
(7.8536e-05 -0.00133874 -0.00449932)
(-0.000157048 -0.00133874 -0.00449726)
(0.000157048 -0.00133874 -0.00449726)
(-0.000235512 -0.00133874 -0.00449383)
(0.000235512 -0.00133874 -0.00449383)
(-0.000313904 -0.00133874 -0.00448904)
(0.000313904 -0.00133874 -0.00448904)
(-0.000392201 -0.00133874 -0.00448288)
(0.000392201 -0.00133874 -0.00448288)
(-0.000470378 -0.00133874 -0.00447535)
(0.000470378 -0.00133874 -0.00447535)
(-0.000548412 -0.00133874 -0.00446646)
(0.000548412 -0.00133874 -0.00446646)
(-0.000626279 -0.00133874 -0.00445621)
(0.000626279 -0.00133874 -0.00445621)
(-0.000703955 -0.00133874 -0.0044446)
(0.000703955 -0.00133874 -0.0044446)
(-0.000781417 -0.00133874 -0.00443163)
(0.000781417 -0.00133874 -0.00443163)
(-0.00085864 -0.00133874 -0.00441732)
(0.00085864 -0.00133874 -0.00441732)
(-0.000935603 -0.00133874 -0.00440166)
(0.000935603 -0.00133874 -0.00440166)
(-0.00101228 -0.00133874 -0.00438467)
(0.00101228 -0.00133874 -0.00438467)
(-0.00108865 -0.00133874 -0.00436633)
(0.00108865 -0.00133874 -0.00436633)
(-0.00116469 -0.00133874 -0.00434667)
(0.00116469 -0.00133874 -0.00434667)
(-0.00124037 -0.00133874 -0.00432568)
(0.00124037 -0.00133874 -0.00432568)
(-0.00131567 -0.00133874 -0.00430337)
(0.00131567 -0.00133874 -0.00430337)
(-0.00139058 -0.00133874 -0.00427975)
(0.00139058 -0.00133874 -0.00427975)
(-0.00146506 -0.00133874 -0.00425483)
(0.00146506 -0.00133874 -0.00425483)
(-0.00153909 -0.00133874 -0.00422862)
(0.00153909 -0.00133874 -0.00422862)
(-0.00161266 -0.00133874 -0.00420111)
(0.00161266 -0.00133874 -0.00420111)
(-0.00168573 -0.00133874 -0.00417233)
(0.00168573 -0.00133874 -0.00417233)
(-0.00175829 -0.00133874 -0.00414227)
(0.00175829 -0.00133874 -0.00414227)
(-0.00183031 -0.00133874 -0.00411095)
(0.00183031 -0.00133874 -0.00411095)
(-0.00190178 -0.00133874 -0.00407839)
(0.00190178 -0.00133874 -0.00407839)
(-0.00197267 -0.00133874 -0.00404457)
(0.00197267 -0.00133874 -0.00404457)
(-0.00204296 -0.00133874 -0.00400953)
(0.00204296 -0.00133874 -0.00400953)
(-0.00211262 -0.00133874 -0.00397326)
(0.00211262 -0.00133874 -0.00397326)
(6.981e-05 0 -0.00399939)
(0 0 -0.004)
(-6.981e-05 0 -0.00399939)
(0.000139598 0 -0.00399756)
(-0.000139598 0 -0.00399756)
(0.000209344 0 -0.00399452)
(-0.000209344 0 -0.00399452)
(0.000279026 0 -0.00399026)
(-0.000279026 0 -0.00399026)
(0.000348623 0 -0.00398478)
(-0.000348623 0 -0.00398478)
(0.000418114 0 -0.00397809)
(-0.000418114 0 -0.00397809)
(0.000487477 0 -0.00397019)
(-0.00218164 -0.00133874 -0.00393579)
(0.00218164 -0.00133874 -0.00393579)
(-0.000487477 0 -0.00397019)
(0.000556692 0 -0.00396107)
(-0.000556692 0 -0.00396107)
(0.000625738 0 -0.00395075)
(-0.000625738 0 -0.00395075)
(0.000694593 0 -0.00393923)
(-0.000694593 0 -0.00393923)
(0.000763236 0 -0.00392651)
(-0.00225 -0.00133874 -0.00389711)
(0.00225 -0.00133874 -0.00389711)
(-0.000763236 0 -0.00392651)
(0.000831647 0 -0.00391259)
(-0.000831647 0 -0.00391259)
(0.000899804 0 -0.00389748)
(-0.000899804 0 -0.00389748)
(0.000967688 0 -0.00388118)
(-0.00231767 -0.00133874 -0.00385725)
(0.00231767 -0.00133874 -0.00385725)
(-0.000967688 0 -0.00388118)
(0.00103528 0 -0.0038637)
(-0.00103528 0 -0.0038637)
(0.00110255 0 -0.00384505)
(-0.00238464 -0.00133874 -0.00381622)
(0.00238464 -0.00133874 -0.00381622)
(-0.00110255 0 -0.00384505)
(0.00116949 0 -0.00382522)
(-0.00116949 0 -0.00382522)
(0.00123607 0 -0.00380423)
(-0.00245088 -0.00133874 -0.00377402)
(0.00245088 -0.00133874 -0.00377402)
(-0.00123607 0 -0.00380423)
(0.00130227 0 -0.00378207)
(-0.00130227 0 -0.00378207)
(0.00136808 0 -0.00375877)
(-0.00251637 -0.00133874 -0.00373067)
(0.00251637 -0.00133874 -0.00373067)
(-0.00136808 0 -0.00375877)
(0.00143347 0 -0.00373432)
(-0.00143347 0 -0.00373432)
(0.00149843 0 -0.00370873)
(-0.00258109 -0.00133874 -0.00368618)
(0.00258109 -0.00133874 -0.00368618)
(-0.00149843 0 -0.00370873)
(0.00156292 0 -0.00368202)
(-0.00264503 -0.00133874 -0.00364058)
(0.00264503 -0.00133874 -0.00364058)
(-0.00156292 0 -0.00368202)
(0.00162695 0 -0.00365418)
(-0.00162695 0 -0.00365418)
(0.00169047 0 -0.00362523)
(-0.00270817 -0.00133874 -0.00359386)
(0.00270817 -0.00133874 -0.00359386)
(-0.00169047 0 -0.00362523)
(0.00175348 0 -0.00359518)
(-0.00175348 0 -0.00359518)
(0.00181596 0 -0.00356403)
(-0.00277048 -0.00133874 -0.00354605)
(0.00277048 -0.00133874 -0.00354605)
(-0.00181596 0 -0.00356403)
(0.00187789 0 -0.00353179)
(-0.00283194 -0.00133874 -0.00349716)
(0.00283194 -0.00133874 -0.00349716)
(-0.00187789 0 -0.00353179)
(0.00193924 0 -0.00349848)
(-0.00193924 0 -0.00349848)
(0.002 0 -0.0034641)
(-0.00289254 -0.00133874 -0.0034472)
(0.00289254 -0.00133874 -0.0034472)
(-0.002 0 -0.0034641)
(0.00206015 0 -0.00342867)
(-0.00295227 -0.00133874 -0.00339619)
(0.00295227 -0.00133874 -0.00339619)
(-0.00206015 0 -0.00342867)
(0.00211968 0 -0.00339219)
(-0.00301109 -0.00133874 -0.00334415)
(0.00301109 -0.00133874 -0.00334415)
(-0.00211968 0 -0.00339219)
(0.00217856 0 -0.00335468)
(-0.00217856 0 -0.00335468)
(0.00223677 0 -0.00331615)
(-0.00306899 -0.00133874 -0.00329109)
(0.00306899 -0.00133874 -0.00329109)
(-0.00223677 0 -0.00331615)
(0.00229431 0 -0.00327661)
(-0.00312596 -0.00133874 -0.00323703)
(0.00312596 -0.00133874 -0.00323703)
(-0.00229431 0 -0.00327661)
(0.00235114 0 -0.00323607)
(-0.00318198 -0.00133874 -0.00318198)
(0.00318198 -0.00133874 -0.00318198)
(-0.00235114 0 -0.00323607)
(0.00240726 0 -0.00319454)
(-0.00240726 0 -0.00319454)
(0.00246265 0 -0.00315204)
(-0.00323703 -0.00133874 -0.00312596)
(0.00323703 -0.00133874 -0.00312596)
(-0.00246265 0 -0.00315204)
(0.00251728 0 -0.00310858)
(-0.00329109 -0.00133874 -0.00306899)
(0.00329109 -0.00133874 -0.00306899)
(-0.00251728 0 -0.00310858)
(0.00257115 0 -0.00306418)
(-0.00334415 -0.00133874 -0.00301109)
(0.00334415 -0.00133874 -0.00301109)
(-0.00257115 0 -0.00306418)
(0.00262424 0 -0.00301884)
(-0.00262424 0 -0.00301884)
(0.00267652 0 -0.00297258)
(-0.00339619 -0.00133874 -0.00295227)
(0.00339619 -0.00133874 -0.00295227)
(-0.00267652 0 -0.00297258)
(0.00272799 0 -0.00292542)
(-0.0034472 -0.00133874 -0.00289254)
(0.0034472 -0.00133874 -0.00289254)
(-0.00272799 0 -0.00292542)
(0.00277863 0 -0.00287736)
(-0.00349716 -0.00133874 -0.00283194)
(0.00349716 -0.00133874 -0.00283194)
(-0.00277863 0 -0.00287736)
(0.00282843 0 -0.00282843)
(-0.00354605 -0.00133874 -0.00277048)
(0.00354605 -0.00133874 -0.00277048)
(-0.00282843 0 -0.00282843)
(0.00287736 0 -0.00277863)
(-0.00287736 0 -0.00277863)
(0.00292542 0 -0.00272799)
(-0.00359386 -0.00133874 -0.00270817)
(0.00359386 -0.00133874 -0.00270817)
(-0.00292542 0 -0.00272799)
(0.00297258 0 -0.00267652)
(-0.00364058 -0.00133874 -0.00264503)
(0.00364058 -0.00133874 -0.00264503)
(-0.00297258 0 -0.00267652)
(0.00301884 0 -0.00262424)
(-0.00368618 -0.00133874 -0.00258109)
(0.00368618 -0.00133874 -0.00258109)
(-0.00301884 0 -0.00262424)
(0.00306418 0 -0.00257115)
(-0.00373067 -0.00133874 -0.00251637)
(0.00373067 -0.00133874 -0.00251637)
(-0.00306418 0 -0.00257115)
(0.00310858 0 -0.00251728)
(-0.00310858 0 -0.00251728)
(0.00315204 0 -0.00246265)
(-0.00377402 -0.00133874 -0.00245088)
(0.00377402 -0.00133874 -0.00245088)
(-0.00315204 0 -0.00246265)
(0.00319454 0 -0.00240726)
(-0.00381622 -0.00133874 -0.00238464)
(0.00381622 -0.00133874 -0.00238464)
(-0.00319454 0 -0.00240726)
(0.00323607 0 -0.00235114)
(-0.00385725 -0.00133874 -0.00231767)
(0.00385725 -0.00133874 -0.00231767)
(-0.00323607 0 -0.00235114)
(0.00327661 0 -0.00229431)
(-0.00389711 -0.00133874 -0.00225)
(0.00389711 -0.00133874 -0.00225)
(-0.00327661 0 -0.00229431)
(0.00331615 0 -0.00223677)
(-0.00393579 -0.00133874 -0.00218164)
(0.00393579 -0.00133874 -0.00218164)
(-0.00331615 0 -0.00223677)
(0.00335468 0 -0.00217856)
(-0.00397326 -0.00133874 -0.00211262)
(0.00397326 -0.00133874 -0.00211262)
(-0.00335468 0 -0.00217856)
(0.00339219 0 -0.00211968)
(-0.00339219 0 -0.00211968)
(0.00342867 0 -0.00206015)
(-0.00400953 -0.00133874 -0.00204296)
(0.00400953 -0.00133874 -0.00204296)
(-0.00342867 0 -0.00206015)
(0.0034641 0 -0.002)
(-0.00404457 -0.00133874 -0.00197267)
(0.00404457 -0.00133874 -0.00197267)
(-0.0034641 0 -0.002)
(0.00349848 0 -0.00193924)
(-0.00407839 -0.00133874 -0.00190178)
(0.00407839 -0.00133874 -0.00190178)
(-0.00349848 0 -0.00193924)
(0.00353179 0 -0.00187789)
(-0.00411095 -0.00133874 -0.00183031)
(0.00411095 -0.00133874 -0.00183031)
(-0.00353179 0 -0.00187789)
(0.00356403 0 -0.00181596)
(-0.00414227 -0.00133874 -0.00175829)
(0.00414227 -0.00133874 -0.00175829)
(-0.00356403 0 -0.00181596)
(0.00359518 0 -0.00175348)
(-0.00417233 -0.00133874 -0.00168573)
(0.00417233 -0.00133874 -0.00168573)
(-0.00359518 0 -0.00175348)
(0.00362523 0 -0.00169047)
(-0.00362523 0 -0.00169047)
(0.00365418 0 -0.00162695)
(-0.00420111 -0.00133874 -0.00161266)
(0.00420111 -0.00133874 -0.00161266)
(-0.00365418 0 -0.00162695)
(0.00368202 0 -0.00156292)
(-0.00422862 -0.00133874 -0.00153909)
(0.00422862 -0.00133874 -0.00153909)
(-0.00368202 0 -0.00156292)
(0.00370873 0 -0.00149843)
(-0.00425483 -0.00133874 -0.00146506)
(0.00425483 -0.00133874 -0.00146506)
(-0.00370873 0 -0.00149843)
(0.00373432 0 -0.00143347)
(-0.00427975 -0.00133874 -0.00139058)
(0.00427975 -0.00133874 -0.00139058)
(-0.00373432 0 -0.00143347)
(0.00375877 0 -0.00136808)
(-0.00430337 -0.00133874 -0.00131567)
(0.00430337 -0.00133874 -0.00131567)
(-0.00375877 0 -0.00136808)
(0.00378207 0 -0.00130227)
(-0.00432568 -0.00133874 -0.00124037)
(0.00432568 -0.00133874 -0.00124037)
(-0.00378207 0 -0.00130227)
(0.00380423 0 -0.00123607)
(-0.00434667 -0.00133874 -0.00116469)
(0.00434667 -0.00133874 -0.00116469)
(-0.00380423 0 -0.00123607)
(0.00382522 0 -0.00116949)
(-0.00382522 0 -0.00116949)
(0.00384505 0 -0.00110255)
(-0.00436633 -0.00133874 -0.00108865)
(0.00436633 -0.00133874 -0.00108865)
(-0.00384505 0 -0.00110255)
(0.0038637 0 -0.00103528)
(-0.00438467 -0.00133874 -0.00101228)
(0.00438467 -0.00133874 -0.00101228)
(-0.0038637 0 -0.00103528)
(0.00388118 0 -0.000967688)
(-0.00440166 -0.00133874 -0.000935603)
(0.00440166 -0.00133874 -0.000935603)
(-0.00388118 0 -0.000967688)
(0.00389748 0 -0.000899804)
(-0.00441732 -0.00133874 -0.00085864)
(0.00441732 -0.00133874 -0.00085864)
(-0.00389748 0 -0.000899804)
(0.00391259 0 -0.000831647)
(-0.00443163 -0.00133874 -0.000781417)
(0.00443163 -0.00133874 -0.000781417)
(-0.00391259 0 -0.000831647)
(0.00392651 0 -0.000763236)
(-0.0044446 -0.00133874 -0.000703955)
(0.0044446 -0.00133874 -0.000703955)
(-0.00392651 0 -0.000763236)
(0.00393923 0 -0.000694593)
(-0.00445621 -0.00133874 -0.000626279)
(0.00445621 -0.00133874 -0.000626279)
(-0.00393923 0 -0.000694593)
(0.00395075 0 -0.000625738)
(-0.00446646 -0.00133874 -0.000548412)
(0.00446646 -0.00133874 -0.000548412)
(-0.00395075 0 -0.000625738)
(0.00396107 0 -0.000556692)
(-0.00396107 0 -0.000556692)
(0.00397019 0 -0.000487477)
(-0.00447535 -0.00133874 -0.000470378)
(0.00447535 -0.00133874 -0.000470378)
(-0.00397019 0 -0.000487477)
(0.00397809 0 -0.000418114)
(-0.00448288 -0.00133874 -0.000392201)
(0.00448288 -0.00133874 -0.000392201)
(-0.00397809 0 -0.000418114)
(0.00398478 0 -0.000348623)
(-0.00448904 -0.00133874 -0.000313904)
(0.00448904 -0.00133874 -0.000313904)
(-0.00398478 0 -0.000348623)
(0.00399026 0 -0.000279026)
(-0.00449383 -0.00133874 -0.000235512)
(0.00449383 -0.00133874 -0.000235512)
(-0.00399026 0 -0.000279026)
(0.00399452 0 -0.000209344)
(-0.00449726 -0.00133874 -0.000157048)
(0.00449726 -0.00133874 -0.000157048)
(-0.00399452 0 -0.000209344)
(0.00399756 0 -0.000139598)
(-0.00449932 -0.00133874 -7.8536e-05)
(0.00449932 -0.00133874 -7.8536e-05)
(-0.00399756 0 -0.000139598)
(0.00399939 0 -6.981e-05)
(-0.0045 -0.00133874 0)
(0.0045 -0.00133874 0)
(-0.00399939 0 -6.981e-05)
(0.004 0 0)
(0.00449932 -0.00133874 7.8536e-05)
(0.00399939 0 6.981e-05)
(-0.00449932 -0.00133874 7.8536e-05)
(-0.004 0 0)
(-0.00449726 -0.00133874 0.000157048)
(-0.00399939 0 6.981e-05)
(0.00399756 0 0.000139598)
(0.00449726 -0.00133874 0.000157048)
(-0.00449383 -0.00133874 0.000235512)
(-0.00399756 0 0.000139598)
(0.00399452 0 0.000209344)
(0.00449383 -0.00133874 0.000235512)
(-0.00448904 -0.00133874 0.000313904)
(-0.00399452 0 0.000209344)
(0.00399026 0 0.000279026)
(0.00448904 -0.00133874 0.000313904)
(-0.00448288 -0.00133874 0.000392201)
(-0.00399026 0 0.000279026)
(0.00398478 0 0.000348623)
(0.00448288 -0.00133874 0.000392201)
(-0.00447535 -0.00133874 0.000470378)
(-0.00398478 0 0.000348623)
(0.00397809 0 0.000418114)
(0.00447535 -0.00133874 0.000470378)
(-0.00446646 -0.00133874 0.000548412)
(-0.00397809 0 0.000418114)
(0.00397019 0 0.000487477)
(0.00446646 -0.00133874 0.000548412)
(-0.00445621 -0.00133874 0.000626279)
(-0.00397019 0 0.000487477)
(0.00396107 0 0.000556692)
(0.00445621 -0.00133874 0.000626279)
(-0.0044446 -0.00133874 0.000703955)
(-0.00396107 0 0.000556692)
(0.00395075 0 0.000625738)
(-0.00443163 -0.00133874 0.000781417)
(-0.00395075 0 0.000625738)
(0.0044446 -0.00133874 0.000703955)
(0.00393923 0 0.000694593)
(-0.00441732 -0.00133874 0.00085864)
(-0.00393923 0 0.000694593)
(0.00443163 -0.00133874 0.000781417)
(0.00392651 0 0.000763236)
(-0.00440166 -0.00133874 0.000935603)
(-0.00392651 0 0.000763236)
(0.00441732 -0.00133874 0.00085864)
(0.00391259 0 0.000831647)
(-0.00438467 -0.00133874 0.00101228)
(-0.00391259 0 0.000831647)
(0.00440166 -0.00133874 0.000935603)
(0.00389748 0 0.000899804)
(-0.00436633 -0.00133874 0.00108865)
(-0.00389748 0 0.000899804)
(0.00438467 -0.00133874 0.00101228)
(0.00388118 0 0.000967688)
(-0.00434667 -0.00133874 0.00116469)
(-0.00388118 0 0.000967688)
(0.00436633 -0.00133874 0.00108865)
(0.0038637 0 0.00103528)
(-0.00432568 -0.00133874 0.00124037)
(-0.0038637 0 0.00103528)
(0.00434667 -0.00133874 0.00116469)
(0.00384505 0 0.00110255)
(-0.00430337 -0.00133874 0.00131567)
(-0.00384505 0 0.00110255)
(0.00432568 -0.00133874 0.00124037)
(0.00382522 0 0.00116949)
(-0.00427975 -0.00133874 0.00139058)
(-0.00382522 0 0.00116949)
(0.00430337 -0.00133874 0.00131567)
(0.00380423 0 0.00123607)
(-0.00425483 -0.00133874 0.00146506)
(-0.00380423 0 0.00123607)
(0.00427975 -0.00133874 0.00139058)
(0.00378207 0 0.00130227)
(-0.00422862 -0.00133874 0.00153909)
(-0.00378207 0 0.00130227)
(0.00425483 -0.00133874 0.00146506)
(0.00375877 0 0.00136808)
(-0.00420111 -0.00133874 0.00161266)
(-0.00375877 0 0.00136808)
(0.00422862 -0.00133874 0.00153909)
(0.00373432 0 0.00143347)
(-0.00417233 -0.00133874 0.00168573)
(-0.00373432 0 0.00143347)
(0.00420111 -0.00133874 0.00161266)
(0.00370873 0 0.00149843)
(-0.00414227 -0.00133874 0.00175829)
(-0.00370873 0 0.00149843)
(0.00417233 -0.00133874 0.00168573)
(0.00368202 0 0.00156292)
(-0.00411095 -0.00133874 0.00183031)
(-0.00368202 0 0.00156292)
(0.00414227 -0.00133874 0.00175829)
(0.00365418 0 0.00162695)
(-0.00407839 -0.00133874 0.00190178)
(-0.00365418 0 0.00162695)
(0.00411095 -0.00133874 0.00183031)
(0.00362523 0 0.00169047)
(-0.00404457 -0.00133874 0.00197267)
(-0.00362523 0 0.00169047)
(0.00407839 -0.00133874 0.00190178)
(0.00359518 0 0.00175348)
(-0.00400953 -0.00133874 0.00204296)
(-0.00359518 0 0.00175348)
(0.00404457 -0.00133874 0.00197267)
(0.00356403 0 0.00181596)
(-0.00397326 -0.00133874 0.00211262)
(-0.00356403 0 0.00181596)
(0.00400953 -0.00133874 0.00204296)
(0.00353179 0 0.00187789)
(-0.00393579 -0.00133874 0.00218164)
(-0.00353179 0 0.00187789)
(0.00397326 -0.00133874 0.00211262)
(0.00349848 0 0.00193924)
(-0.00389711 -0.00133874 0.00225)
(-0.00349848 0 0.00193924)
(0.00393579 -0.00133874 0.00218164)
(0.0034641 0 0.002)
(-0.00385725 -0.00133874 0.00231767)
(-0.0034641 0 0.002)
(0.00389711 -0.00133874 0.00225)
(0.00342867 0 0.00206015)
(-0.00381622 -0.00133874 0.00238464)
(-0.00342867 0 0.00206015)
(0.00385725 -0.00133874 0.00231767)
(0.00339219 0 0.00211968)
(-0.00377402 -0.00133874 0.00245088)
(-0.00339219 0 0.00211968)
(0.00381622 -0.00133874 0.00238464)
(0.00335468 0 0.00217856)
(-0.00373067 -0.00133874 0.00251637)
(-0.00335468 0 0.00217856)
(0.00377402 -0.00133874 0.00245088)
(0.00331615 0 0.00223677)
(-0.00368618 -0.00133874 0.00258109)
(-0.00331615 0 0.00223677)
(0.00373067 -0.00133874 0.00251637)
(0.00327661 0 0.00229431)
(-0.00364058 -0.00133874 0.00264503)
(-0.00327661 0 0.00229431)
(0.00368618 -0.00133874 0.00258109)
(0.00323607 0 0.00235114)
(-0.00359386 -0.00133874 0.00270817)
(-0.00323607 0 0.00235114)
(0.00364058 -0.00133874 0.00264503)
(0.00319454 0 0.00240726)
(-0.00354605 -0.00133874 0.00277048)
(-0.00319454 0 0.00240726)
(0.00359386 -0.00133874 0.00270817)
(0.00315204 0 0.00246265)
(-0.00349716 -0.00133874 0.00283194)
(-0.00315204 0 0.00246265)
(0.00354605 -0.00133874 0.00277048)
(0.00310858 0 0.00251728)
(-0.0034472 -0.00133874 0.00289254)
(-0.00310858 0 0.00251728)
(0.00349716 -0.00133874 0.00283194)
(0.00306418 0 0.00257115)
(-0.00339619 -0.00133874 0.00295227)
(-0.00306418 0 0.00257115)
(0.0034472 -0.00133874 0.00289254)
(0.00301884 0 0.00262424)
(-0.00334415 -0.00133874 0.00301109)
(-0.00301884 0 0.00262424)
(0.00339619 -0.00133874 0.00295227)
(0.00297258 0 0.00267652)
(-0.00329109 -0.00133874 0.00306899)
(-0.00297258 0 0.00267652)
(0.00334415 -0.00133874 0.00301109)
(0.00292542 0 0.00272799)
(-0.00323703 -0.00133874 0.00312596)
(-0.00292542 0 0.00272799)
(0.00329109 -0.00133874 0.00306899)
(0.00287736 0 0.00277863)
(-0.00318198 -0.00133874 0.00318198)
(-0.00287736 0 0.00277863)
(0.00323703 -0.00133874 0.00312596)
(0.00282843 0 0.00282843)
(-0.00312596 -0.00133874 0.00323703)
(-0.00282843 0 0.00282843)
(0.00318198 -0.00133874 0.00318198)
(0.00277863 0 0.00287736)
(-0.00306899 -0.00133874 0.00329109)
(-0.00277863 0 0.00287736)
(0.00312596 -0.00133874 0.00323703)
(0.00272799 0 0.00292542)
(-0.00301109 -0.00133874 0.00334415)
(-0.00272799 0 0.00292542)
(0.00306899 -0.00133874 0.00329109)
(0.00267652 0 0.00297258)
(-0.00295227 -0.00133874 0.00339619)
(-0.00267652 0 0.00297258)
(0.00301109 -0.00133874 0.00334415)
(0.00262424 0 0.00301884)
(-0.00289254 -0.00133874 0.0034472)
(-0.00262424 0 0.00301884)
(0.00295227 -0.00133874 0.00339619)
(0.00257115 0 0.00306418)
(-0.00283194 -0.00133874 0.00349716)
(-0.00257115 0 0.00306418)
(0.00289254 -0.00133874 0.0034472)
(0.00251728 0 0.00310858)
(-0.00277048 -0.00133874 0.00354605)
(-0.00251728 0 0.00310858)
(0.00283194 -0.00133874 0.00349716)
(0.00246265 0 0.00315204)
(-0.00270817 -0.00133874 0.00359386)
(-0.00246265 0 0.00315204)
(0.00277048 -0.00133874 0.00354605)
(0.00240726 0 0.00319454)
(-0.00264503 -0.00133874 0.00364058)
(-0.00240726 0 0.00319454)
(0.00270817 -0.00133874 0.00359386)
(0.00235114 0 0.00323607)
(-0.00258109 -0.00133874 0.00368618)
(-0.00235114 0 0.00323607)
(0.00264503 -0.00133874 0.00364058)
(0.00229431 0 0.00327661)
(-0.00251637 -0.00133874 0.00373067)
(-0.00229431 0 0.00327661)
(0.00258109 -0.00133874 0.00368618)
(0.00223677 0 0.00331615)
(-0.00245088 -0.00133874 0.00377402)
(-0.00223677 0 0.00331615)
(0.00251637 -0.00133874 0.00373067)
(0.00217856 0 0.00335468)
(-0.00238464 -0.00133874 0.00381622)
(-0.00217856 0 0.00335468)
(0.00245088 -0.00133874 0.00377402)
(0.00211968 0 0.00339219)
(-0.00231767 -0.00133874 0.00385725)
(-0.00211968 0 0.00339219)
(0.00238464 -0.00133874 0.00381622)
(0.00206015 0 0.00342867)
(-0.00225 -0.00133874 0.00389711)
(-0.00206015 0 0.00342867)
(0.00231767 -0.00133874 0.00385725)
(0.002 0 0.0034641)
(-0.00218164 -0.00133874 0.00393579)
(-0.002 0 0.0034641)
(0.00225 -0.00133874 0.00389711)
(0.00193924 0 0.00349848)
(-0.00211262 -0.00133874 0.00397326)
(-0.00193924 0 0.00349848)
(0.00218164 -0.00133874 0.00393579)
(0.00187789 0 0.00353179)
(-0.00204296 -0.00133874 0.00400953)
(-0.00187789 0 0.00353179)
(0.00211262 -0.00133874 0.00397326)
(0.00181596 0 0.00356403)
(-0.00197267 -0.00133874 0.00404457)
(-0.00181596 0 0.00356403)
(0.00204296 -0.00133874 0.00400953)
(0.00175348 0 0.00359518)
(-0.00190178 -0.00133874 0.00407839)
(-0.00175348 0 0.00359518)
(0.00197267 -0.00133874 0.00404457)
(0.00169047 0 0.00362523)
(-0.00183031 -0.00133874 0.00411095)
(-0.00169047 0 0.00362523)
(0.00190178 -0.00133874 0.00407839)
(0.00162695 0 0.00365418)
(-0.00175829 -0.00133874 0.00414227)
(-0.00162695 0 0.00365418)
(0.00183031 -0.00133874 0.00411095)
(0.00156292 0 0.00368202)
(-0.00168573 -0.00133874 0.00417233)
(-0.00156292 0 0.00368202)
(0.00175829 -0.00133874 0.00414227)
(0.00149843 0 0.00370873)
(-0.00161266 -0.00133874 0.00420111)
(-0.00149843 0 0.00370873)
(0.00168573 -0.00133874 0.00417233)
(0.00143347 0 0.00373432)
(-0.00153909 -0.00133874 0.00422862)
(-0.00143347 0 0.00373432)
(0.00161266 -0.00133874 0.00420111)
(0.00136808 0 0.00375877)
(-0.00146506 -0.00133874 0.00425483)
(-0.00136808 0 0.00375877)
(0.00153909 -0.00133874 0.00422862)
(0.00130227 0 0.00378207)
(-0.00139058 -0.00133874 0.00427975)
(-0.00130227 0 0.00378207)
(0.00146506 -0.00133874 0.00425483)
(0.00123607 0 0.00380423)
(-0.00131567 -0.00133874 0.00430337)
(-0.00123607 0 0.00380423)
(0.00139058 -0.00133874 0.00427975)
(0.00116949 0 0.00382522)
(-0.00124037 -0.00133874 0.00432568)
(-0.00116949 0 0.00382522)
(0.00131567 -0.00133874 0.00430337)
(0.00110255 0 0.00384505)
(-0.00116469 -0.00133874 0.00434667)
(-0.00110255 0 0.00384505)
(0.00124037 -0.00133874 0.00432568)
(0.00103528 0 0.0038637)
(-0.00108865 -0.00133874 0.00436633)
(-0.00103528 0 0.0038637)
(0.00116469 -0.00133874 0.00434667)
(0.000967688 0 0.00388118)
(-0.00101228 -0.00133874 0.00438467)
(-0.000967688 0 0.00388118)
(0.00108865 -0.00133874 0.00436633)
(0.000899804 0 0.00389748)
(-0.000935603 -0.00133874 0.00440166)
(-0.000899804 0 0.00389748)
(0.00101228 -0.00133874 0.00438467)
(0.000831647 0 0.00391259)
(-0.00085864 -0.00133874 0.00441732)
(-0.000831647 0 0.00391259)
(0.000935603 -0.00133874 0.00440166)
(0.000763236 0 0.00392651)
(-0.000781417 -0.00133874 0.00443163)
(-0.000763236 0 0.00392651)
(0.00085864 -0.00133874 0.00441732)
(0.000694593 0 0.00393923)
(-0.000703955 -0.00133874 0.0044446)
(-0.000694593 0 0.00393923)
(0.000781417 -0.00133874 0.00443163)
(0.000625738 0 0.00395075)
(-0.000626279 -0.00133874 0.00445621)
(-0.000625738 0 0.00395075)
(0.000703955 -0.00133874 0.0044446)
(0.000556692 0 0.00396107)
(-0.000548412 -0.00133874 0.00446646)
(-0.000556692 0 0.00396107)
(0.000626279 -0.00133874 0.00445621)
(0.000487477 0 0.00397019)
(-0.000470378 -0.00133874 0.00447535)
(-0.000487477 0 0.00397019)
(0.000548412 -0.00133874 0.00446646)
(0.000418114 0 0.00397809)
(-0.000392201 -0.00133874 0.00448288)
(-0.000418114 0 0.00397809)
(0.000470378 -0.00133874 0.00447535)
(0.000348623 0 0.00398478)
(-0.000313904 -0.00133874 0.00448904)
(-0.000348623 0 0.00398478)
(0.000392201 -0.00133874 0.00448288)
(0.000279026 0 0.00399026)
(-0.000235512 -0.00133874 0.00449383)
(-0.000279026 0 0.00399026)
(0.000313904 -0.00133874 0.00448904)
(0.000209344 0 0.00399452)
(-0.000157048 -0.00133874 0.00449726)
(-0.000209344 0 0.00399452)
(0.000235512 -0.00133874 0.00449383)
(0.000139598 0 0.00399756)
(-7.8536e-05 -0.00133874 0.00449932)
(-0.000139598 0 0.00399756)
(0.000157048 -0.00133874 0.00449726)
(6.981e-05 0 0.00399939)
(0 -0.00133874 0.0045)
(-6.981e-05 0 0.00399939)
(7.8536e-05 -0.00133874 0.00449932)
(0 0 0.004)
(6.981e-05 -0.00133874 -0.00399939)
(0 -0.00133874 -0.004)
(-6.981e-05 -0.00133874 -0.00399939)
(0.000139598 -0.00133874 -0.00399756)
(-0.000139598 -0.00133874 -0.00399756)
(0.000209344 -0.00133874 -0.00399452)
(-0.000209344 -0.00133874 -0.00399452)
(0.000279026 -0.00133874 -0.00399026)
(-0.000279026 -0.00133874 -0.00399026)
(0.000348623 -0.00133874 -0.00398478)
(-0.000348623 -0.00133874 -0.00398478)
(0.000418114 -0.00133874 -0.00397809)
(-0.000418114 -0.00133874 -0.00397809)
(0.000487477 -0.00133874 -0.00397019)
(-0.000487477 -0.00133874 -0.00397019)
(0.000556692 -0.00133874 -0.00396107)
(-0.000556692 -0.00133874 -0.00396107)
(0.000625738 -0.00133874 -0.00395075)
(-0.000625738 -0.00133874 -0.00395075)
(0.000694593 -0.00133874 -0.00393923)
(-0.000694593 -0.00133874 -0.00393923)
(0.000763236 -0.00133874 -0.00392651)
(-0.000763236 -0.00133874 -0.00392651)
(0.000831647 -0.00133874 -0.00391259)
(-0.000831647 -0.00133874 -0.00391259)
(0.000899804 -0.00133874 -0.00389748)
(-0.000899804 -0.00133874 -0.00389748)
(0.000967688 -0.00133874 -0.00388118)
(-0.000967688 -0.00133874 -0.00388118)
(0.00103528 -0.00133874 -0.0038637)
(-0.00103528 -0.00133874 -0.0038637)
(0.00110255 -0.00133874 -0.00384505)
(-0.00110255 -0.00133874 -0.00384505)
(0.00116949 -0.00133874 -0.00382522)
(-0.00116949 -0.00133874 -0.00382522)
(0.00123607 -0.00133874 -0.00380423)
(-0.00123607 -0.00133874 -0.00380423)
(0.00130227 -0.00133874 -0.00378207)
(-0.00130227 -0.00133874 -0.00378207)
(0.00136808 -0.00133874 -0.00375877)
(-0.00136808 -0.00133874 -0.00375877)
(0.00143347 -0.00133874 -0.00373432)
(-0.00143347 -0.00133874 -0.00373432)
(0.00149843 -0.00133874 -0.00370873)
(-0.00149843 -0.00133874 -0.00370873)
(0.00156292 -0.00133874 -0.00368202)
(-0.00156292 -0.00133874 -0.00368202)
(0.00162695 -0.00133874 -0.00365418)
(-0.00162695 -0.00133874 -0.00365418)
(0.00169047 -0.00133874 -0.00362523)
(-0.00169047 -0.00133874 -0.00362523)
(0.00175348 -0.00133874 -0.00359518)
(-0.00175348 -0.00133874 -0.00359518)
(0.00181596 -0.00133874 -0.00356403)
(-0.00181596 -0.00133874 -0.00356403)
(0.00187789 -0.00133874 -0.00353179)
(-0.00187789 -0.00133874 -0.00353179)
(0.00193924 -0.00133874 -0.00349848)
(-0.00193924 -0.00133874 -0.00349848)
(0.002 -0.00133874 -0.0034641)
(-0.002 -0.00133874 -0.0034641)
(0.00206015 -0.00133874 -0.00342867)
(-0.00206015 -0.00133874 -0.00342867)
(0.00211968 -0.00133874 -0.00339219)
(-0.00211968 -0.00133874 -0.00339219)
(0.00217856 -0.00133874 -0.00335468)
(-0.00217856 -0.00133874 -0.00335468)
(0.00223677 -0.00133874 -0.00331615)
(-0.00223677 -0.00133874 -0.00331615)
(0.00229431 -0.00133874 -0.00327661)
(-0.00229431 -0.00133874 -0.00327661)
(0.00235114 -0.00133874 -0.00323607)
(-0.00235114 -0.00133874 -0.00323607)
(0.00240726 -0.00133874 -0.00319454)
(-0.00240726 -0.00133874 -0.00319454)
(0.00246265 -0.00133874 -0.00315204)
(-0.00246265 -0.00133874 -0.00315204)
(0.00251728 -0.00133874 -0.00310858)
(-0.00251728 -0.00133874 -0.00310858)
(0.00257115 -0.00133874 -0.00306418)
(-0.00257115 -0.00133874 -0.00306418)
(0.00262424 -0.00133874 -0.00301884)
(-0.00262424 -0.00133874 -0.00301884)
(0.00267652 -0.00133874 -0.00297258)
(-0.00267652 -0.00133874 -0.00297258)
(0.00272799 -0.00133874 -0.00292542)
(-0.00272799 -0.00133874 -0.00292542)
(0.00277863 -0.00133874 -0.00287736)
(-0.00277863 -0.00133874 -0.00287736)
(0.00282843 -0.00133874 -0.00282843)
(-0.00282843 -0.00133874 -0.00282843)
(0.00287736 -0.00133874 -0.00277863)
(-0.00287736 -0.00133874 -0.00277863)
(0.00292542 -0.00133874 -0.00272799)
(-0.00292542 -0.00133874 -0.00272799)
(0.00297258 -0.00133874 -0.00267652)
(-0.00297258 -0.00133874 -0.00267652)
(0.00301884 -0.00133874 -0.00262424)
(-0.00301884 -0.00133874 -0.00262424)
(0.00306418 -0.00133874 -0.00257115)
(-0.00306418 -0.00133874 -0.00257115)
(0.00310858 -0.00133874 -0.00251728)
(-0.00310858 -0.00133874 -0.00251728)
(0.00315204 -0.00133874 -0.00246265)
(-0.00315204 -0.00133874 -0.00246265)
(0.00319454 -0.00133874 -0.00240726)
(-0.00319454 -0.00133874 -0.00240726)
(0.00323607 -0.00133874 -0.00235114)
(-0.00323607 -0.00133874 -0.00235114)
(0.00327661 -0.00133874 -0.00229431)
(-0.00327661 -0.00133874 -0.00229431)
(0.00331615 -0.00133874 -0.00223677)
(-0.00331615 -0.00133874 -0.00223677)
(0.00335468 -0.00133874 -0.00217856)
(-0.00335468 -0.00133874 -0.00217856)
(0.00339219 -0.00133874 -0.00211968)
(-0.00339219 -0.00133874 -0.00211968)
(0.00342867 -0.00133874 -0.00206015)
(-0.00342867 -0.00133874 -0.00206015)
(0.0034641 -0.00133874 -0.002)
(-0.0034641 -0.00133874 -0.002)
(0.00349848 -0.00133874 -0.00193924)
(-0.00349848 -0.00133874 -0.00193924)
(0.00353179 -0.00133874 -0.00187789)
(-0.00353179 -0.00133874 -0.00187789)
(0.00356403 -0.00133874 -0.00181596)
(-0.00356403 -0.00133874 -0.00181596)
(0.00359518 -0.00133874 -0.00175348)
(-0.00359518 -0.00133874 -0.00175348)
(0.00362523 -0.00133874 -0.00169047)
(-0.00362523 -0.00133874 -0.00169047)
(0.00365418 -0.00133874 -0.00162695)
(-0.00365418 -0.00133874 -0.00162695)
(0.00368202 -0.00133874 -0.00156292)
(-0.00368202 -0.00133874 -0.00156292)
(0.00370873 -0.00133874 -0.00149843)
(-0.00370873 -0.00133874 -0.00149843)
(0.00373432 -0.00133874 -0.00143347)
(-0.00373432 -0.00133874 -0.00143347)
(0.00375877 -0.00133874 -0.00136808)
(-0.00375877 -0.00133874 -0.00136808)
(0.00378207 -0.00133874 -0.00130227)
(-0.00378207 -0.00133874 -0.00130227)
(0.00380423 -0.00133874 -0.00123607)
(-0.00380423 -0.00133874 -0.00123607)
(0.00382522 -0.00133874 -0.00116949)
(-0.00382522 -0.00133874 -0.00116949)
(0.00384505 -0.00133874 -0.00110255)
(-0.00384505 -0.00133874 -0.00110255)
(0.0038637 -0.00133874 -0.00103528)
(-0.0038637 -0.00133874 -0.00103528)
(0.00388118 -0.00133874 -0.000967688)
(-0.00388118 -0.00133874 -0.000967688)
(0.00389748 -0.00133874 -0.000899804)
(-0.00389748 -0.00133874 -0.000899804)
(0.00391259 -0.00133874 -0.000831647)
(-0.00391259 -0.00133874 -0.000831647)
(0.00392651 -0.00133874 -0.000763236)
(-0.00392651 -0.00133874 -0.000763236)
(0.00393923 -0.00133874 -0.000694593)
(-0.00393923 -0.00133874 -0.000694593)
(0.00395075 -0.00133874 -0.000625738)
(-0.00395075 -0.00133874 -0.000625738)
(0.00396107 -0.00133874 -0.000556692)
(-0.00396107 -0.00133874 -0.000556692)
(0.00397019 -0.00133874 -0.000487477)
(-0.00397019 -0.00133874 -0.000487477)
(0.00397809 -0.00133874 -0.000418114)
(-0.00397809 -0.00133874 -0.000418114)