/*--------------------------------*- C++ -*----------------------------------*\
  =========                 |
  \\      /  F ield         | OpenFOAM: The Open Source CFD Toolbox
   \\    /   O peration     | Website:  https://openfoam.org
    \\  /    A nd           | Version:  6
     \\/     M anipulation  |
\*---------------------------------------------------------------------------*/
FoamFile
{
    version     2.0;
    format      ascii;
    class       featureEdgeMesh;
    location    "constant/triSurface";
    object      wall.eMesh;
}
// * * * * * * * * * * * * * * * * * * * * * * * * * * * * * * * * * * * * * //


// points:

1440
(
(0 -0.00133874 -0.0045)
(-7.8536e-05 -0.00133874 -0.00449932)
(7.8536e-05 -0.00133874 -0.00449932)
(-0.000157048 -0.00133874 -0.00449726)
(0.000157048 -0.00133874 -0.00449726)
(-0.000235512 -0.00133874 -0.00449383)
(0.000235512 -0.00133874 -0.00449383)
(-0.000313904 -0.00133874 -0.00448904)
(0.000313904 -0.00133874 -0.00448904)
(-0.000392201 -0.00133874 -0.00448288)
(0.000392201 -0.00133874 -0.00448288)
(-0.000470378 -0.00133874 -0.00447535)
(0.000470378 -0.00133874 -0.00447535)
(-0.000548412 -0.00133874 -0.00446646)
(0.000548412 -0.00133874 -0.00446646)
(-0.000626279 -0.00133874 -0.00445621)
(0.000626279 -0.00133874 -0.00445621)
(-0.000703955 -0.00133874 -0.0044446)
(0.000703955 -0.00133874 -0.0044446)
(-0.000781417 -0.00133874 -0.00443163)
(0.000781417 -0.00133874 -0.00443163)
(-0.00085864 -0.00133874 -0.00441732)
(0.00085864 -0.00133874 -0.00441732)
(-0.000935603 -0.00133874 -0.00440166)
(0.000935603 -0.00133874 -0.00440166)
(-0.00101228 -0.00133874 -0.00438467)
(0.00101228 -0.00133874 -0.00438467)
(-0.00108865 -0.00133874 -0.00436633)
(0.00108865 -0.00133874 -0.00436633)
(-0.00116469 -0.00133874 -0.00434667)
(0.00116469 -0.00133874 -0.00434667)
(-0.00124037 -0.00133874 -0.00432568)
(0.00124037 -0.00133874 -0.00432568)
(-0.00131567 -0.00133874 -0.00430337)
(0.00131567 -0.00133874 -0.00430337)
(-0.00139058 -0.00133874 -0.00427975)
(0.00139058 -0.00133874 -0.00427975)
(-0.00146506 -0.00133874 -0.00425483)
(0.00146506 -0.00133874 -0.00425483)
(-0.00153909 -0.00133874 -0.00422862)
(0.00153909 -0.00133874 -0.00422862)
(-0.00161266 -0.00133874 -0.00420111)
(0.00161266 -0.00133874 -0.00420111)
(-0.00168573 -0.00133874 -0.00417233)
(0.00168573 -0.00133874 -0.00417233)
(-0.00175829 -0.00133874 -0.00414227)
(0.00175829 -0.00133874 -0.00414227)
(-0.00183031 -0.00133874 -0.00411095)
(0.00183031 -0.00133874 -0.00411095)
(-0.00190178 -0.00133874 -0.00407839)
(0.00190178 -0.00133874 -0.00407839)
(-0.00197267 -0.00133874 -0.00404457)
(0.00197267 -0.00133874 -0.00404457)
(-0.00204296 -0.00133874 -0.00400953)
(0.00204296 -0.00133874 -0.00400953)
(-0.00211262 -0.00133874 -0.00397326)
(0.00211262 -0.00133874 -0.00397326)
(-0.00218164 -0.00133874 -0.00393579)
(0.00218164 -0.00133874 -0.00393579)
(-0.00225 -0.00133874 -0.00389711)
(0.00225 -0.00133874 -0.00389711)
(-0.00231767 -0.00133874 -0.00385725)
(0.00231767 -0.00133874 -0.00385725)
(-0.00238464 -0.00133874 -0.00381622)
(0.00238464 -0.00133874 -0.00381622)
(-0.00245088 -0.00133874 -0.00377402)
(0.00245088 -0.00133874 -0.00377402)
(-0.00251637 -0.00133874 -0.00373067)
(0.00251637 -0.00133874 -0.00373067)
(-0.00258109 -0.00133874 -0.00368618)
(0.00258109 -0.00133874 -0.00368618)
(-0.00264503 -0.00133874 -0.00364058)
(0.00264503 -0.00133874 -0.00364058)
(-0.00270817 -0.00133874 -0.00359386)
(0.00270817 -0.00133874 -0.00359386)
(-0.00277048 -0.00133874 -0.00354605)
(0.00277048 -0.00133874 -0.00354605)
(-0.00283194 -0.00133874 -0.00349716)
(0.00283194 -0.00133874 -0.00349716)
(-0.00289254 -0.00133874 -0.0034472)
(0.00289254 -0.00133874 -0.0034472)
(-0.00295227 -0.00133874 -0.00339619)
(0.00295227 -0.00133874 -0.00339619)
(-0.00301109 -0.00133874 -0.00334415)
(0.00301109 -0.00133874 -0.00334415)
(-0.00306899 -0.00133874 -0.00329109)
(0.00306899 -0.00133874 -0.00329109)
(-0.00312596 -0.00133874 -0.00323703)
(0.00312596 -0.00133874 -0.00323703)
(-0.00318198 -0.00133874 -0.00318198)
(0.00318198 -0.00133874 -0.00318198)
(-0.00323703 -0.00133874 -0.00312596)
(0.00323703 -0.00133874 -0.00312596)
(-0.00329109 -0.00133874 -0.00306899)
(0.00329109 -0.00133874 -0.00306899)
(-0.00334415 -0.00133874 -0.00301109)
(0.00334415 -0.00133874 -0.00301109)
(-0.00339619 -0.00133874 -0.00295227)
(0.00339619 -0.00133874 -0.00295227)
(-0.0034472 -0.00133874 -0.00289254)
(0.0034472 -0.00133874 -0.00289254)
(-0.00349716 -0.00133874 -0.00283194)
(0.00349716 -0.00133874 -0.00283194)
(-0.00354605 -0.00133874 -0.00277048)
(0.00354605 -0.00133874 -0.00277048)
(-0.00359386 -0.00133874 -0.00270817)
(0.00359386 -0.00133874 -0.00270817)
(-0.00364058 -0.00133874 -0.00264503)
(0.00364058 -0.00133874 -0.00264503)
(-0.00368618 -0.00133874 -0.00258109)
(0.00368618 -0.00133874 -0.00258109)
(-0.00373067 -0.00133874 -0.00251637)
(0.00373067 -0.00133874 -0.00251637)
(-0.00377402 -0.00133874 -0.00245088)
(0.00377402 -0.00133874 -0.00245088)
(-0.00381622 -0.00133874 -0.00238464)
(0.00381622 -0.00133874 -0.00238464)
(-0.00385725 -0.00133874 -0.00231767)
(0.00385725 -0.00133874 -0.00231767)
(-0.00389711 -0.00133874 -0.00225)
(0.00389711 -0.00133874 -0.00225)
(-0.00393579 -0.00133874 -0.00218164)
(0.00393579 -0.00133874 -0.00218164)
(-0.00397326 -0.00133874 -0.00211262)
(0.00397326 -0.00133874 -0.00211262)
(-0.00400953 -0.00133874 -0.00204296)
(0.00400953 -0.00133874 -0.00204296)
(-0.00404457 -0.00133874 -0.00197267)
(0.00404457 -0.00133874 -0.00197267)
(-0.00407839 -0.00133874 -0.00190178)
(0.00407839 -0.00133874 -0.00190178)
(-0.00411095 -0.00133874 -0.00183031)
(0.00411095 -0.00133874 -0.00183031)
(-0.00414227 -0.00133874 -0.00175829)
(0.00414227 -0.00133874 -0.00175829)
(-0.00417233 -0.00133874 -0.00168573)
(0.00417233 -0.00133874 -0.00168573)
(-0.00420111 -0.00133874 -0.00161266)
(0.00420111 -0.00133874 -0.00161266)
(-0.00422862 -0.00133874 -0.00153909)
(0.00422862 -0.00133874 -0.00153909)
(-0.00425483 -0.00133874 -0.00146506)
(0.00425483 -0.00133874 -0.00146506)
(-0.00427975 -0.00133874 -0.00139058)
(0.00427975 -0.00133874 -0.00139058)
(-0.00430337 -0.00133874 -0.00131567)
(0.00430337 -0.00133874 -0.00131567)
(-0.00432568 -0.00133874 -0.00124037)
(0.00432568 -0.00133874 -0.00124037)
(-0.00434667 -0.00133874 -0.00116469)
(0.00434667 -0.00133874 -0.00116469)
(-0.00436633 -0.00133874 -0.00108865)
(0.00436633 -0.00133874 -0.00108865)
(-0.00438467 -0.00133874 -0.00101228)
(0.00438467 -0.00133874 -0.00101228)
(-0.00440166 -0.00133874 -0.000935603)
(0.00440166 -0.00133874 -0.000935603)
(-0.00441732 -0.00133874 -0.00085864)
(0.00441732 -0.00133874 -0.00085864)
(-0.00443163 -0.00133874 -0.000781417)
(0.00443163 -0.00133874 -0.000781417)
(-0.0044446 -0.00133874 -0.000703955)
(0.0044446 -0.00133874 -0.000703955)
(-0.00445621 -0.00133874 -0.000626279)
(0.00445621 -0.00133874 -0.000626279)
(-0.00446646 -0.00133874 -0.000548412)
(0.00446646 -0.00133874 -0.000548412)
(-0.00447535 -0.00133874 -0.000470378)
(0.00447535 -0.00133874 -0.000470378)
(-0.00448288 -0.00133874 -0.000392201)
(0.00448288 -0.00133874 -0.000392201)
(-0.00448904 -0.00133874 -0.000313904)
(0.00448904 -0.00133874 -0.000313904)
(-0.00449383 -0.00133874 -0.000235512)
(0.00449383 -0.00133874 -0.000235512)
(-0.00449726 -0.00133874 -0.000157048)
(0.00449726 -0.00133874 -0.000157048)
(-0.00449932 -0.00133874 -7.8536e-05)
(0.00449932 -0.00133874 -7.8536e-05)
(-0.0045 -0.00133874 0)
(0.0045 -0.00133874 0)
(0.00449932 -0.00133874 7.8536e-05)
(-0.00449932 -0.00133874 7.8536e-05)
(-0.00449726 -0.00133874 0.000157048)
(0.00449726 -0.00133874 0.000157048)
(-0.00449383 -0.00133874 0.000235512)
(0.00449383 -0.00133874 0.000235512)
(-0.00448904 -0.00133874 0.000313904)
(0.00448904 -0.00133874 0.000313904)
(-0.00448288 -0.00133874 0.000392201)
(0.00448288 -0.00133874 0.000392201)
(-0.00447535 -0.00133874 0.000470378)
(0.00447535 -0.00133874 0.000470378)
(-0.00446646 -0.00133874 0.000548412)
(0.00446646 -0.00133874 0.000548412)
(-0.00445621 -0.00133874 0.000626279)
(0.00445621 -0.00133874 0.000626279)
(-0.0044446 -0.00133874 0.000703955)
(0.0044446 -0.00133874 0.000703955)
(-0.00443163 -0.00133874 0.000781417)
(0.00443163 -0.00133874 0.000781417)
(-0.00441732 -0.00133874 0.00085864)
(0.00441732 -0.00133874 0.00085864)
(-0.00440166 -0.00133874 0.000935603)
(0.00440166 -0.00133874 0.000935603)
(-0.00438467 -0.00133874 0.00101228)
(0.00438467 -0.00133874 0.00101228)
(-0.00436633 -0.00133874 0.00108865)
(0.00436633 -0.00133874 0.00108865)
(-0.00434667 -0.00133874 0.00116469)
(0.00434667 -0.00133874 0.00116469)
(-0.00432568 -0.00133874 0.00124037)
(0.00432568 -0.00133874 0.00124037)
(-0.00430337 -0.00133874 0.00131567)
(0.00430337 -0.00133874 0.00131567)
(-0.00427975 -0.00133874 0.00139058)
(0.00427975 -0.00133874 0.00139058)
(-0.00425483 -0.00133874 0.00146506)
(0.00425483 -0.00133874 0.00146506)
(-0.00422862 -0.00133874 0.00153909)
(0.00422862 -0.00133874 0.00153909)
(-0.00420111 -0.00133874 0.00161266)
(0.00420111 -0.00133874 0.00161266)
(-0.00417233 -0.00133874 0.00168573)
(0.00417233 -0.00133874 0.00168573)
(-0.00414227 -0.00133874 0.00175829)
(0.00414227 -0.00133874 0.00175829)
(-0.00411095 -0.00133874 0.00183031)
(0.00411095 -0.00133874 0.00183031)
(-0.00407839 -0.00133874 0.00190178)
(0.00407839 -0.00133874 0.00190178)
(-0.00404457 -0.00133874 0.00197267)
(0.00404457 -0.00133874 0.00197267)
(-0.00400953 -0.00133874 0.00204296)
(0.00400953 -0.00133874 0.00204296)
(-0.00397326 -0.00133874 0.00211262)
(0.00397326 -0.00133874 0.00211262)
(-0.00393579 -0.00133874 0.00218164)
(0.00393579 -0.00133874 0.00218164)
(-0.00389711 -0.00133874 0.00225)
(0.00389711 -0.00133874 0.00225)
(-0.00385725 -0.00133874 0.00231767)
(0.00385725 -0.00133874 0.00231767)
(-0.00381622 -0.00133874 0.00238464)
(0.00381622 -0.00133874 0.00238464)
(-0.00377402 -0.00133874 0.00245088)
(0.00377402 -0.00133874 0.00245088)
(-0.00373067 -0.00133874 0.00251637)
(0.00373067 -0.00133874 0.00251637)
(-0.00368618 -0.00133874 0.00258109)
(0.00368618 -0.00133874 0.00258109)
(-0.00364058 -0.00133874 0.00264503)
(0.00364058 -0.00133874 0.00264503)
(-0.00359386 -0.00133874 0.00270817)
(0.00359386 -0.00133874 0.00270817)
(-0.00354605 -0.00133874 0.00277048)
(0.00354605 -0.00133874 0.00277048)
(-0.00349716 -0.00133874 0.00283194)
(0.00349716 -0.00133874 0.00283194)
(-0.0034472 -0.00133874 0.00289254)
(0.0034472 -0.00133874 0.00289254)
(-0.00339619 -0.00133874 0.00295227)
(0.00339619 -0.00133874 0.00295227)
(-0.00334415 -0.00133874 0.00301109)
(0.00334415 -0.00133874 0.00301109)
(-0.00329109 -0.00133874 0.00306899)
(0.00329109 -0.00133874 0.00306899)
(-0.00323703 -0.00133874 0.00312596)
(0.00323703 -0.00133874 0.00312596)
(-0.00318198 -0.00133874 0.00318198)
(0.00318198 -0.00133874 0.00318198)
(-0.00312596 -0.00133874 0.00323703)
(0.00312596 -0.00133874 0.00323703)
(-0.00306899 -0.00133874 0.00329109)
(0.00306899 -0.00133874 0.00329109)
(-0.00301109 -0.00133874 0.00334415)
(0.00301109 -0.00133874 0.00334415)
(-0.00295227 -0.00133874 0.00339619)
(0.00295227 -0.00133874 0.00339619)
(-0.00289254 -0.00133874 0.0034472)
(0.00289254 -0.00133874 0.0034472)
(-0.00283194 -0.00133874 0.00349716)
(0.00283194 -0.00133874 0.00349716)
(-0.00277048 -0.00133874 0.00354605)
(0.00277048 -0.00133874 0.00354605)
(-0.00270817 -0.00133874 0.00359386)
(0.00270817 -0.00133874 0.00359386)
(-0.00264503 -0.00133874 0.00364058)
(0.00264503 -0.00133874 0.00364058)
(-0.00258109 -0.00133874 0.00368618)
(0.00258109 -0.00133874 0.00368618)
(-0.00251637 -0.00133874 0.00373067)
(0.00251637 -0.00133874 0.00373067)
(-0.00245088 -0.00133874 0.00377402)
(0.00245088 -0.00133874 0.00377402)
(-0.00238464 -0.00133874 0.00381622)
(0.00238464 -0.00133874 0.00381622)
(-0.00231767 -0.00133874 0.00385725)
(0.00231767 -0.00133874 0.00385725)
(-0.00225 -0.00133874 0.00389711)
(0.00225 -0.00133874 0.00389711)
(-0.00218164 -0.00133874 0.00393579)
(0.00218164 -0.00133874 0.00393579)
(-0.00211262 -0.00133874 0.00397326)
(0.00211262 -0.00133874 0.00397326)
(-0.00204296 -0.00133874 0.00400953)
(0.00204296 -0.00133874 0.00400953)
(-0.00197267 -0.00133874 0.00404457)
(0.00197267 -0.00133874 0.00404457)
(-0.00190178 -0.00133874 0.00407839)
(0.00190178 -0.00133874 0.00407839)
(-0.00183031 -0.00133874 0.00411095)
(0.00183031 -0.00133874 0.00411095)
(-0.00175829 -0.00133874 0.00414227)
(0.00175829 -0.00133874 0.00414227)
(-0.00168573 -0.00133874 0.00417233)
(0.00168573 -0.00133874 0.00417233)
(-0.00161266 -0.00133874 0.00420111)
(0.00161266 -0.00133874 0.00420111)
(-0.00153909 -0.00133874 0.00422862)
(0.00153909 -0.00133874 0.00422862)
(-0.00146506 -0.00133874 0.00425483)
(0.00146506 -0.00133874 0.00425483)
(-0.00139058 -0.00133874 0.00427975)
(0.00139058 -0.00133874 0.00427975)
(-0.00131567 -0.00133874 0.00430337)
(0.00131567 -0.00133874 0.00430337)
(-0.00124037 -0.00133874 0.00432568)
(0.00124037 -0.00133874 0.00432568)
(-0.00116469 -0.00133874 0.00434667)
(0.00116469 -0.00133874 0.00434667)
(-0.00108865 -0.00133874 0.00436633)
(0.00108865 -0.00133874 0.00436633)
(-0.00101228 -0.00133874 0.00438467)
(0.00101228 -0.00133874 0.00438467)
(-0.000935603 -0.00133874 0.00440166)
(0.000935603 -0.00133874 0.00440166)
(-0.00085864 -0.00133874 0.00441732)
(0.00085864 -0.00133874 0.00441732)
(-0.000781417 -0.00133874 0.00443163)
(0.000781417 -0.00133874 0.00443163)
(-0.000703955 -0.00133874 0.0044446)
(0.000703955 -0.00133874 0.0044446)
(-0.000626279 -0.00133874 0.00445621)
(0.000626279 -0.00133874 0.00445621)
(-0.000548412 -0.00133874 0.00446646)
(0.000548412 -0.00133874 0.00446646)
(-0.000470378 -0.00133874 0.00447535)
(0.000470378 -0.00133874 0.00447535)
(-0.000392201 -0.00133874 0.00448288)
(0.000392201 -0.00133874 0.00448288)
(-0.000313904 -0.00133874 0.00448904)
(0.000313904 -0.00133874 0.00448904)
(-0.000235512 -0.00133874 0.00449383)
(0.000235512 -0.00133874 0.00449383)
(-0.000157048 -0.00133874 0.00449726)
(0.000157048 -0.00133874 0.00449726)
(-7.8536e-05 -0.00133874 0.00449932)
(7.8536e-05 -0.00133874 0.00449932)
(0 -0.00133874 0.0045)
(0 0.00266126 -0.0005)
(8.726e-06 0.00266126 -0.000499924)
(-8.726e-06 0.00266126 -0.000499924)
(1.745e-05 0.00266126 -0.000499695)
(-1.745e-05 0.00266126 -0.000499695)
(2.6168e-05 0.00266126 -0.000499315)
(-2.6168e-05 0.00266126 -0.000499315)
(3.4878e-05 0.00266126 -0.000498782)
(-3.4878e-05 0.00266126 -0.000498782)
(4.3578e-05 0.00266126 -0.000498097)
(-4.3578e-05 0.00266126 -0.000498097)
(5.2264e-05 0.00266126 -0.000497261)
(-5.2264e-05 0.00266126 -0.000497261)
(6.0935e-05 0.00266126 -0.000496273)
(-6.0935e-05 0.00266126 -0.000496273)
(6.9587e-05 0.00266126 -0.000495134)
(-6.9587e-05 0.00266126 -0.000495134)
(7.8217e-05 0.00266126 -0.000493844)
(-7.8217e-05 0.00266126 -0.000493844)
(8.6824e-05 0.00266126 -0.000492404)
(-8.6824e-05 0.00266126 -0.000492404)
(9.5404e-05 0.00266126 -0.000490814)
(-9.5404e-05 0.00266126 -0.000490814)
(0.000103956 0.00266126 -0.000489074)
(-0.000103956 0.00266126 -0.000489074)
(0.000112475 0.00266126 -0.000487185)
(-0.000112475 0.00266126 -0.000487185)
(0.000120961 0.00266126 -0.000485148)
(-0.000120961 0.00266126 -0.000485148)
(0.00012941 0.00266126 -0.000482963)
(-0.00012941 0.00266126 -0.000482963)
(0.000137819 0.00266126 -0.000480631)
(-0.000137819 0.00266126 -0.000480631)
(0.000146186 0.00266126 -0.000478152)
(-0.000146186 0.00266126 -0.000478152)
(0.000154509 0.00266126 -0.000475528)
(-0.000154509 0.00266126 -0.000475528)
(0.000162784 0.00266126 -0.000472759)
(-0.000162784 0.00266126 -0.000472759)
(0.00017101 0.00266126 -0.000469846)
(-0.00017101 0.00266126 -0.000469846)
(0.000179184 0.00266126 -0.00046679)
(-0.000179184 0.00266126 -0.00046679)
(0.000187303 0.00266126 -0.000463592)
(-0.000187303 0.00266126 -0.000463592)
(0.000195366 0.00266126 -0.000460252)
(-0.000195366 0.00266126 -0.000460252)
(0.000203368 0.00266126 -0.000456773)
(-0.000203368 0.00266126 -0.000456773)
(0.000211309 0.00266126 -0.000453154)
(-0.000211309 0.00266126 -0.000453154)
(0.000219186 0.00266126 -0.000449397)
(-0.000219186 0.00266126 -0.000449397)
(0.000226995 0.00266126 -0.000445503)
(-0.000226995 0.00266126 -0.000445503)
(0.000234736 0.00266126 -0.000441474)
(-0.000234736 0.00266126 -0.000441474)
(0.000242405 0.00266126 -0.00043731)
(-0.000242405 0.00266126 -0.00043731)
(0.00025 0.00266126 -0.000433013)
(-0.00025 0.00266126 -0.000433013)
(0.000257519 0.00266126 -0.000428584)
(-0.000257519 0.00266126 -0.000428584)
(0.00026496 0.00266126 -0.000424024)
(-0.00026496 0.00266126 -0.000424024)
(0.000272319 0.00266126 -0.000419335)
(-0.000272319 0.00266126 -0.000419335)
(0.000279597 0.00266126 -0.000414519)
(-0.000279597 0.00266126 -0.000414519)
(0.000286788 0.00266126 -0.000409576)
(-0.000286788 0.00266126 -0.000409576)
(0.000293893 0.00266126 -0.000404509)
(-0.000293893 0.00266126 -0.000404509)
(0.000300907 0.00266126 -0.000399318)
(-0.000300907 0.00266126 -0.000399318)
(0.000307831 0.00266126 -0.000394005)
(-0.000307831 0.00266126 -0.000394005)
(0.00031466 0.00266126 -0.000388573)
(-0.00031466 0.00266126 -0.000388573)
(0.000321394 0.00266126 -0.000383022)
(-0.000321394 0.00266126 -0.000383022)
(0.00032803 0.00266126 -0.000377355)
(-0.00032803 0.00266126 -0.000377355)
(0.000334565 0.00266126 -0.000371572)
(-0.000334565 0.00266126 -0.000371572)
(0.000340999 0.00266126 -0.000365677)
(-0.000340999 0.00266126 -0.000365677)
(0.000347329 0.00266126 -0.00035967)
(-0.000347329 0.00266126 -0.00035967)
(0.000353553 0.00266126 -0.000353553)
(-0.000353553 0.00266126 -0.000353553)
(0.00035967 0.00266126 -0.000347329)
(-0.00035967 0.00266126 -0.000347329)
(0.000365677 0.00266126 -0.000340999)
(-0.000365677 0.00266126 -0.000340999)
(0.000371572 0.00266126 -0.000334565)
(-0.000371572 0.00266126 -0.000334565)
(0.000377355 0.00266126 -0.00032803)
(-0.000377355 0.00266126 -0.00032803)
(0.000383022 0.00266126 -0.000321394)
(-0.000383022 0.00266126 -0.000321394)
(0.000388573 0.00266126 -0.00031466)
(-0.000388573 0.00266126 -0.00031466)
(0.000394005 0.00266126 -0.000307831)
(-0.000394005 0.00266126 -0.000307831)
(0.000399318 0.00266126 -0.000300907)
(-0.000399318 0.00266126 -0.000300907)
(0.000404509 0.00266126 -0.000293893)
(-0.000404509 0.00266126 -0.000293893)
(0.000409576 0.00266126 -0.000286788)
(-0.000409576 0.00266126 -0.000286788)
(0.000414519 0.00266126 -0.000279597)
(-0.000414519 0.00266126 -0.000279597)
(0.000419335 0.00266126 -0.000272319)
(-0.000419335 0.00266126 -0.000272319)
(0.000424024 0.00266126 -0.00026496)
(-0.000424024 0.00266126 -0.00026496)
(0.000428584 0.00266126 -0.000257519)
(-0.000428584 0.00266126 -0.000257519)
(0.000433013 0.00266126 -0.00025)
(-0.000433013 0.00266126 -0.00025)
(0.00043731 0.00266126 -0.000242405)
(-0.00043731 0.00266126 -0.000242405)
(0.000441474 0.00266126 -0.000234736)
(-0.000441474 0.00266126 -0.000234736)
(0.000445503 0.00266126 -0.000226995)
(-0.000445503 0.00266126 -0.000226995)
(0.000449397 0.00266126 -0.000219186)
(-0.000449397 0.00266126 -0.000219186)
(0.000453154 0.00266126 -0.000211309)
(-0.000453154 0.00266126 -0.000211309)
(0.000456773 0.00266126 -0.000203368)
(-0.000456773 0.00266126 -0.000203368)
(0.000460252 0.00266126 -0.000195366)
(-0.000460252 0.00266126 -0.000195366)
(0.000463592 0.00266126 -0.000187303)
(-0.000463592 0.00266126 -0.000187303)
(0.00046679 0.00266126 -0.000179184)
(-0.00046679 0.00266126 -0.000179184)
(0.000469846 0.00266126 -0.00017101)
(-0.000469846 0.00266126 -0.00017101)
(0.000472759 0.00266126 -0.000162784)
(-0.000472759 0.00266126 -0.000162784)
(0.000475528 0.00266126 -0.000154509)
(-0.000475528 0.00266126 -0.000154509)
(0.000478152 0.00266126 -0.000146186)
(-0.000478152 0.00266126 -0.000146186)
(0.000480631 0.00266126 -0.000137819)
(-0.000480631 0.00266126 -0.000137819)
(0.000482963 0.00266126 -0.00012941)
(-0.000482963 0.00266126 -0.00012941)
(0.000485148 0.00266126 -0.000120961)
(-0.000485148 0.00266126 -0.000120961)
(0.000487185 0.00266126 -0.000112475)
(-0.000487185 0.00266126 -0.000112475)
(0.000489074 0.00266126 -0.000103956)
(-0.000489074 0.00266126 -0.000103956)
(0.000490814 0.00266126 -9.5404e-05)
(-0.000490814 0.00266126 -9.5404e-05)
(0.000492404 0.00266126 -8.6824e-05)
(-0.000492404 0.00266126 -8.6824e-05)
(0.000493844 0.00266126 -7.8217e-05)
(-0.000493844 0.00266126 -7.8217e-05)
(0.000495134 0.00266126 -6.9587e-05)
(-0.000495134 0.00266126 -6.9587e-05)
(0.000496273 0.00266126 -6.0935e-05)
(-0.000496273 0.00266126 -6.0935e-05)
(0.000497261 0.00266126 -5.2264e-05)
(-0.000497261 0.00266126 -5.2264e-05)
(0.000498097 0.00266126 -4.3578e-05)
(-0.000498097 0.00266126 -4.3578e-05)
(0.000498782 0.00266126 -3.4878e-05)
(-0.000498782 0.00266126 -3.4878e-05)
(0.000499315 0.00266126 -2.6168e-05)
(-0.000499315 0.00266126 -2.6168e-05)
(0.000499695 0.00266126 -1.745e-05)
(-0.000499695 0.00266126 -1.745e-05)
(0.000499924 0.00266126 -8.726e-06)
(-0.000499924 0.00266126 -8.726e-06)
(0.0005 0.00266126 0)
(0.000499924 0.00266126 8.726e-06)
(-0.0005 0.00266126 0)
(-0.000499924 0.00266126 8.726e-06)
(0.000499695 0.00266126 1.745e-05)
(-0.000499695 0.00266126 1.745e-05)
(0.000499315 0.00266126 2.6168e-05)
(-0.000499315 0.00266126 2.6168e-05)
(0.000498782 0.00266126 3.4878e-05)
(-0.000498782 0.00266126 3.4878e-05)
(0.000498097 0.00266126 4.3578e-05)
(-0.000498097 0.00266126 4.3578e-05)
(0.000497261 0.00266126 5.2264e-05)
(-0.000497261 0.00266126 5.2264e-05)
(0.000496273 0.00266126 6.0935e-05)
(-0.000496273 0.00266126 6.0935e-05)
(0.000495134 0.00266126 6.9587e-05)
(-0.000495134 0.00266126 6.9587e-05)
(0.000493844 0.00266126 7.8217e-05)
(-0.000493844 0.00266126 7.8217e-05)
(0.000492404 0.00266126 8.6824e-05)
(-0.000492404 0.00266126 8.6824e-05)
(0.000490814 0.00266126 9.5404e-05)
(-0.000490814 0.00266126 9.5404e-05)
(0.000489074 0.00266126 0.000103956)
(-0.000489074 0.00266126 0.000103956)
(0.000487185 0.00266126 0.000112475)
(-0.000487185 0.00266126 0.000112475)
(0.000485148 0.00266126 0.000120961)
(-0.000485148 0.00266126 0.000120961)
(0.000482963 0.00266126 0.00012941)
(-0.000482963 0.00266126 0.00012941)
(0.000480631 0.00266126 0.000137819)
(-0.000480631 0.00266126 0.000137819)
(0.000478152 0.00266126 0.000146186)
(-0.000478152 0.00266126 0.000146186)
(0.000475528 0.00266126 0.000154509)
(-0.000475528 0.00266126 0.000154509)
(0.000472759 0.00266126 0.000162784)
(-0.000472759 0.00266126 0.000162784)
(0.000469846 0.00266126 0.00017101)
(-0.000469846 0.00266126 0.00017101)
(0.00046679 0.00266126 0.000179184)
(-0.00046679 0.00266126 0.000179184)
(0.000463592 0.00266126 0.000187303)
(-0.000463592 0.00266126 0.000187303)
(0.000460252 0.00266126 0.000195366)
(-0.000460252 0.00266126 0.000195366)
(0.000456773 0.00266126 0.000203368)
(-0.000456773 0.00266126 0.000203368)
(0.000453154 0.00266126 0.000211309)
(-0.000453154 0.00266126 0.000211309)
(0.000449397 0.00266126 0.000219186)
(-0.000449397 0.00266126 0.000219186)
(0.000445503 0.00266126 0.000226995)
(-0.000445503 0.00266126 0.000226995)
(0.000441474 0.00266126 0.000234736)
(-0.000441474 0.00266126 0.000234736)
(0.00043731 0.00266126 0.000242405)
(-0.00043731 0.00266126 0.000242405)
(0.000433013 0.00266126 0.00025)
(-0.000433013 0.00266126 0.00025)
(0.000428584 0.00266126 0.000257519)
(-0.000428584 0.00266126 0.000257519)
(0.000424024 0.00266126 0.00026496)
(-0.000424024 0.00266126 0.00026496)
(0.000419335 0.00266126 0.000272319)
(-0.000419335 0.00266126 0.000272319)
(0.000414519 0.00266126 0.000279597)
(-0.000414519 0.00266126 0.000279597)
(0.000409576 0.00266126 0.000286788)
(-0.000409576 0.00266126 0.000286788)
(0.000404509 0.00266126 0.000293893)
(-0.000404509 0.00266126 0.000293893)
(0.000399318 0.00266126 0.000300907)
(-0.000399318 0.00266126 0.000300907)
(0.000394005 0.00266126 0.000307831)
(-0.000394005 0.00266126 0.000307831)
(0.000388573 0.00266126 0.00031466)
(-0.000388573 0.00266126 0.00031466)
(0.000383022 0.00266126 0.000321394)
(-0.000383022 0.00266126 0.000321394)
(0.000377355 0.00266126 0.00032803)
(-0.000377355 0.00266126 0.00032803)
(0.000371572 0.00266126 0.000334565)
(-0.000371572 0.00266126 0.000334565)
(0.000365677 0.00266126 0.000340999)
(-0.000365677 0.00266126 0.000340999)
(0.00035967 0.00266126 0.000347329)
(-0.00035967 0.00266126 0.000347329)
(0.000353553 0.00266126 0.000353553)
(-0.000353553 0.00266126 0.000353553)
(0.000347329 0.00266126 0.00035967)
(-0.000347329 0.00266126 0.00035967)
(0.000340999 0.00266126 0.000365677)
(-0.000340999 0.00266126 0.000365677)
(0.000334565 0.00266126 0.000371572)
(-0.000334565 0.00266126 0.000371572)
(0.00032803 0.00266126 0.000377355)
(-0.00032803 0.00266126 0.000377355)
(0.000321394 0.00266126 0.000383022)
(-0.000321394 0.00266126 0.000383022)
(0.00031466 0.00266126 0.000388573)
(-0.00031466 0.00266126 0.000388573)
(0.000307831 0.00266126 0.000394005)
(-0.000307831 0.00266126 0.000394005)
(0.000300907 0.00266126 0.000399318)
(-0.000300907 0.00266126 0.000399318)
(0.000293893 0.00266126 0.000404509)
(-0.000293893 0.00266126 0.000404509)
(0.000286788 0.00266126 0.000409576)
(-0.000286788 0.00266126 0.000409576)
(0.000279597 0.00266126 0.000414519)
(-0.000279597 0.00266126 0.000414519)
(0.000272319 0.00266126 0.000419335)
(-0.000272319 0.00266126 0.000419335)
(0.00026496 0.00266126 0.000424024)
(-0.00026496 0.00266126 0.000424024)
(0.000257519 0.00266126 0.000428584)
(-0.000257519 0.00266126 0.000428584)
(0.00025 0.00266126 0.000433013)
(-0.00025 0.00266126 0.000433013)
(0.000242405 0.00266126 0.00043731)
(-0.000242405 0.00266126 0.00043731)
(0.000234736 0.00266126 0.000441474)
(-0.000234736 0.00266126 0.000441474)
(0.000226995 0.00266126 0.000445503)
(-0.000226995 0.00266126 0.000445503)
(0.000219186 0.00266126 0.000449397)
(-0.000219186 0.00266126 0.000449397)
(0.000211309 0.00266126 0.000453154)
(-0.000211309 0.00266126 0.000453154)
(0.000203368 0.00266126 0.000456773)
(-0.000203368 0.00266126 0.000456773)
(0.000195366 0.00266126 0.000460252)
(-0.000195366 0.00266126 0.000460252)
(0.000187303 0.00266126 0.000463592)
(-0.000187303 0.00266126 0.000463592)
(0.000179184 0.00266126 0.00046679)
(-0.000179184 0.00266126 0.00046679)
(0.00017101 0.00266126 0.000469846)
(-0.00017101 0.00266126 0.000469846)
(0.000162784 0.00266126 0.000472759)
(-0.000162784 0.00266126 0.000472759)
(0.000154509 0.00266126 0.000475528)
(-0.000154509 0.00266126 0.000475528)
(0.000146186 0.00266126 0.000478152)
(-0.000146186 0.00266126 0.000478152)
(0.000137819 0.00266126 0.000480631)
(-0.000137819 0.00266126 0.000480631)
(0.00012941 0.00266126 0.000482963)
(-0.00012941 0.00266126 0.000482963)
(0.000120961 0.00266126 0.000485148)
(-0.000120961 0.00266126 0.000485148)
(0.000112475 0.00266126 0.000487185)
(-0.000112475 0.00266126 0.000487185)
(0.000103956 0.00266126 0.000489074)
(-0.000103956 0.00266126 0.000489074)
(9.5404e-05 0.00266126 0.000490814)
(-9.5404e-05 0.00266126 0.000490814)
(8.6824e-05 0.00266126 0.000492404)
(-8.6824e-05 0.00266126 0.000492404)
(7.8217e-05 0.00266126 0.000493844)
(-7.8217e-05 0.00266126 0.000493844)
(6.9587e-05 0.00266126 0.000495134)
(-6.9587e-05 0.00266126 0.000495134)
(6.0935e-05 0.00266126 0.000496273)
(-6.0935e-05 0.00266126 0.000496273)
(5.2264e-05 0.00266126 0.000497261)
(-5.2264e-05 0.00266126 0.000497261)
(4.3578e-05 0.00266126 0.000498097)
(-4.3578e-05 0.00266126 0.000498097)
(3.4878e-05 0.00266126 0.000498782)
(-3.4878e-05 0.00266126 0.000498782)
(2.6168e-05 0.00266126 0.000499315)
(-2.6168e-05 0.00266126 0.000499315)
(1.745e-05 0.00266126 0.000499695)
(-1.745e-05 0.00266126 0.000499695)
(8.726e-06 0.00266126 0.000499924)
(-8.726e-06 0.00266126 0.000499924)
(0 0.00266126 0.0005)
(0 0.000661261 -0.0045)
(7.8536e-05 0.000661261 -0.00449932)
(-7.8536e-05 0.000661261 -0.00449932)
(0.000157048 0.000661261 -0.00449726)
(-0.000157048 0.000661261 -0.00449726)
(0.000235512 0.000661261 -0.00449383)
(-0.000235512 0.000661261 -0.00449383)
(0.000313904 0.000661261 -0.00448904)
(-0.000313904 0.000661261 -0.00448904)
(0.000392201 0.000661261 -0.00448288)
(-0.000392201 0.000661261 -0.00448288)
(0.000470378 0.000661261 -0.00447535)
(-0.000470378 0.000661261 -0.00447535)
(0.000548412 0.000661261 -0.00446646)
(-0.000548412 0.000661261 -0.00446646)
(0.000626279 0.000661261 -0.00445621)
(-0.000626279 0.000661261 -0.00445621)
(0.000703955 0.000661261 -0.0044446)
(-0.000703955 0.000661261 -0.0044446)
(0.000781417 0.000661261 -0.00443163)
(-0.000781417 0.000661261 -0.00443163)
(0.00085864 0.000661261 -0.00441732)
(-0.00085864 0.000661261 -0.00441732)
(0.000935603 0.000661261 -0.00440166)
(-0.000935603 0.000661261 -0.00440166)
(0.00101228 0.000661261 -0.00438467)
(-0.00101228 0.000661261 -0.00438467)
(0.00108865 0.000661261 -0.00436633)
(-0.00108865 0.000661261 -0.00436633)
(0.00116469 0.000661261 -0.00434667)
(-0.00116469 0.000661261 -0.00434667)
(0.00124037 0.000661261 -0.00432568)
(-0.00124037 0.000661261 -0.00432568)
(0.00131567 0.000661261 -0.00430337)
(-0.00131567 0.000661261 -0.00430337)
(0.00139058 0.000661261 -0.00427975)
(-0.00139058 0.000661261 -0.00427975)
(0.00146506 0.000661261 -0.00425483)
(-0.00146506 0.000661261 -0.00425483)
(0.00153909 0.000661261 -0.00422862)
(-0.00153909 0.000661261 -0.00422862)
(0.00161266 0.000661261 -0.00420111)
(-0.00161266 0.000661261 -0.00420111)
(0.00168573 0.000661261 -0.00417233)
(-0.00168573 0.000661261 -0.00417233)
(0.00175829 0.000661261 -0.00414227)
(-0.00175829 0.000661261 -0.00414227)
(0.00183031 0.000661261 -0.00411095)
(-0.00183031 0.000661261 -0.00411095)
(0.00190178 0.000661261 -0.00407839)
(-0.00190178 0.000661261 -0.00407839)
(0.00197267 0.000661261 -0.00404457)
(-0.00197267 0.000661261 -0.00404457)
(0.00204296 0.000661261 -0.00400953)
(-0.00204296 0.000661261 -0.00400953)
(0.00211262 0.000661261 -0.00397326)
(-0.00211262 0.000661261 -0.00397326)
(0.00218164 0.000661261 -0.00393579)
(-0.00218164 0.000661261 -0.00393579)
(0.00225 0.000661261 -0.00389711)
(-0.00225 0.000661261 -0.00389711)
(0.00231767 0.000661261 -0.00385725)
(-0.00231767 0.000661261 -0.00385725)
(0.00238464 0.000661261 -0.00381622)
(-0.00238464 0.000661261 -0.00381622)
(0.00245088 0.000661261 -0.00377402)
(-0.00245088 0.000661261 -0.00377402)
(0.00251637 0.000661261 -0.00373067)
(-0.00251637 0.000661261 -0.00373067)
(0.00258109 0.000661261 -0.00368618)